REMARK  Name = 3GZY_ligand.pdb
REMARK  1 active torsions:
REMARK  status: ('A' for Active; 'I' for Inactive)
REMARK    1  A    between atoms: C_3  and  C_19
REMARK                            x       y       z     vdW  Elec       q    Type
REMARK                         _______ _______ _______ _____ _____    ______ ____
ROOT
ATOM      1  C   UNL     1       2.359   4.261  -8.168  0.00  0.00    +0.030 C 
ATOM      2  C   UNL     1       3.298   5.436  -7.859  0.00  0.00    -0.033 C 
ATOM      3  C   UNL     1       2.696   6.706  -7.802  0.00  0.00    -0.033 C 
ATOM      4  C   UNL     1       1.320   6.848  -7.928  0.00  0.00    +0.025 C 
ATOM      5  C   UNL     1       1.039   7.111  -6.437  0.00  0.00    +0.052 C 
ATOM      6  C   UNL     1       1.643   8.519  -6.000  0.00  0.00    +0.065 C 
ATOM      7  N   UNL     1       2.511   9.015  -7.112  0.00  0.00    -0.266 NA
ATOM      8  C   UNL     1       1.546   9.329  -8.240  0.00  0.00    +0.098 C 
ATOM      9  C   UNL     1       0.474  10.231  -7.835  0.00  0.00    +0.070 A 
ATOM     10  N   UNL     1      -0.290  11.043  -8.552  0.00  0.00    -0.249 NA
ATOM     11  C   UNL     1      -1.130  11.678  -7.725  0.00  0.00    +0.081 A 
ATOM     12  C   UNL     1      -0.877  11.289  -6.483  0.00  0.00    +0.015 A 
ATOM     13  C   UNL     1      -1.576  11.780  -5.437  0.00  0.00    +0.001 A 
ATOM     14  C   UNL     1      -2.597  12.731  -5.608  0.00  0.00    +0.000 A 
ATOM     15  C   UNL     1      -2.847  13.158  -6.914  0.00  0.00    +0.002 A 
ATOM     16  C   UNL     1      -2.085  12.598  -7.945  0.00  0.00    +0.019 A 
ATOM     17  C   UNL     1       0.099  10.393  -6.538  0.00  0.00    -0.005 A 
ATOM     18  C   UNL     1       0.671   9.643  -5.456  0.00  0.00    +0.044 C 
ATOM     19  C   UNL     1       0.988   8.030  -8.876  0.00  0.00    +0.026 C 
ATOM     20  C   UNL     1       3.439   7.894  -7.488  0.00  0.00    +0.095 C 
ENDROOT
BRANCH   5  21
ATOM     21  CAF UNL     1      -0.277   6.530  -5.905  0.00  0.00    +0.184 C 
ATOM     22  O   UNL     1      -0.402   5.152  -6.384  0.00  0.00    -0.220 OA
ENDBRANCH   5  21
TORSDOF 1
