REMARK  11 active torsions:
REMARK  status: ('A' for Active; 'I' for Inactive)
REMARK    1  A    between atoms: PA_10415  and  O3_10437 
REMARK    2  A    between atoms: PA_10415  and  O5B_10418 
REMARK    3  A    between atoms: O5B_10418  and  C5B_10419 
REMARK    4  A    between atoms: C5B_10419  and  C4B_10420 
REMARK    5  A    between atoms: C1B_10426  and  N9A_10427 
REMARK    6  A    between atoms: O3_10437  and  PN_10438 
REMARK    7  A    between atoms: PN_10438  and  O5D_10441 
REMARK    8  A    between atoms: O5D_10441  and  C5D_10442 
REMARK    9  A    between atoms: C5D_10442  and  C4D_10443 
REMARK   10  A    between atoms: C1D_10449  and  N1N_10450 
REMARK   11  A    between atoms: C3N_10452  and  C7N_10453 
ROOT
HETATM    1  PA  NAD B 402     -50.810  61.853  55.156  1.00 35.04     0.418 P 
HETATM    2  O1A NAD B 402     -50.846  60.884  53.877  1.00 35.04    -0.624 OA
HETATM    3  O2A NAD B 402     -51.262  63.222  54.904  1.00 35.04    -0.624 OA
ENDROOT
BRANCH   1   4
HETATM    4  O3  NAD B 402     -51.644  61.053  56.244  1.00 35.04    -0.180 OA
BRANCH   4   5
HETATM    5  PN  NAD B 402     -51.260  59.629  56.788  1.00 35.04     0.418 P 
HETATM    6  O1N NAD B 402     -51.104  59.892  58.356  1.00 35.04    -0.624 OA
HETATM    7  O2N NAD B 402     -50.043  58.935  56.188  1.00 35.04    -0.624 OA
BRANCH   5   8
HETATM    8  O5D NAD B 402     -52.593  58.697  56.778  1.00 35.04    -0.268 OA
BRANCH   8   9
HETATM    9  C5D NAD B 402     -53.294  59.174  55.618  1.00 35.04     0.187 C 
BRANCH   9  10
HETATM   10  C4D NAD B 402     -52.830  58.449  54.358  1.00 35.04     0.181 C 
HETATM   11  O4D NAD B 402     -53.039  57.017  54.466  1.00 35.04    -0.331 OA
HETATM   12  C1D NAD B 402     -53.860  56.557  53.336  1.00 35.04     0.239 C 
HETATM   13  C2D NAD B 402     -54.539  57.771  52.789  1.00 35.04     0.234 C 
HETATM   14  O2D NAD B 402     -54.913  57.628  51.424  1.00 35.04    -0.216 OA
HETATM   15  C3D NAD B 402     -53.576  58.890  53.049  1.00 35.04     0.216 C 
HETATM   16  O3D NAD B 402     -52.667  59.114  51.962  1.00 35.04    -0.218 OA
BRANCH  12  17
HETATM   17  N1N NAD B 402     -54.844  55.548  53.839  1.00 35.04    -0.301 N 
HETATM   18  C2N NAD B 402     -55.405  54.601  52.931  1.00 35.04     0.079 A 
HETATM   19  C3N NAD B 402     -56.338  53.689  53.419  1.00 35.04     0.059 A 
HETATM   20  C4N NAD B 402     -56.738  53.691  54.848  1.00 35.04     0.060 A 
HETATM   21  C5N NAD B 402     -56.148  54.657  55.731  1.00 35.04    -0.003 A 
HETATM   22  C6N NAD B 402     -55.195  55.604  55.251  1.00 35.04     0.073 A 
BRANCH  19  23
HETATM   23  C7N NAD B 402     -56.948  52.686  52.448  1.00 35.04     0.295 C 
HETATM   24  O7N NAD B 402     -57.753  51.928  52.916  1.00 35.04    -0.264 OA
HETATM   25  N7N NAD B 402     -56.615  52.661  51.173  1.00 35.04    -0.103 N 
ENDBRANCH  19  23
ENDBRANCH  12  17
ENDBRANCH   9  10
ENDBRANCH   8   9
ENDBRANCH   5   8
ENDBRANCH   4   5
ENDBRANCH   1   4
BRANCH   1  26
HETATM   26  O5B NAD B 402     -49.506  61.682  55.648  1.00 35.04    -0.268 OA
BRANCH  26  27
HETATM   27  C5B NAD B 402     -48.232  62.202  56.109  1.00 35.04     0.187 C 
BRANCH  27  28
HETATM   28  C4B NAD B 402     -47.212  61.133  56.445  1.00 35.04     0.181 C 
HETATM   29  O4B NAD B 402     -46.297  61.045  55.306  1.00 35.04    -0.331 OA
HETATM   30  C1B NAD B 402     -44.964  60.761  55.654  1.00 35.04     0.241 C 
HETATM   31  C2B NAD B 402     -44.999  60.685  57.177  1.00 35.04     0.234 C 
HETATM   32  C3B NAD B 402     -46.293  61.367  57.627  1.00 35.04     0.216 C 
HETATM   33  O2B NAD B 402     -44.881  59.327  57.597  1.00 35.04    -0.216 OA
HETATM   34  O3B NAD B 402     -46.949  60.788  58.778  1.00 35.04    -0.218 OA
BRANCH  30  35
HETATM   35  N9A NAD B 402     -43.892  61.653  55.027  1.00 35.04    -0.270 N 
HETATM   36  C8A NAD B 402     -43.244  61.352  53.884  1.00 35.04     0.182 A 
HETATM   37  N7A NAD B 402     -42.342  62.261  53.516  1.00 35.04    -0.219 NA
HETATM   38  C5A NAD B 402     -42.421  63.194  54.481  1.00 35.04     0.155 A 
HETATM   39  C4A NAD B 402     -43.381  62.848  55.445  1.00 35.04     0.170 A 
HETATM   40  C6A NAD B 402     -41.696  64.443  54.667  1.00 35.04     0.206 A 
HETATM   41  N3A NAD B 402     -43.712  63.569  56.557  1.00 35.04    -0.205 NA
HETATM   42  C2A NAD B 402     -43.035  64.728  56.723  1.00 35.04     0.202 A 
HETATM   43  N1A NAD B 402     -42.057  65.162  55.817  1.00 35.04    -0.202 NA
HETATM   44  N6A NAD B 402     -40.791  64.903  53.880  1.00 35.04    -0.125 N 
ENDBRANCH  30  35
ENDBRANCH  27  28
ENDBRANCH  26  27
ENDBRANCH   1  26
TORSDOF 11
