REMARK  0 active torsions:
REMARK  status: ('A' for Active; 'I' for Inactive)
ROOT
HETATM    1  S   SO4 C 410     -17.703  80.992  36.454  1.00113.40     0.261 S 
HETATM    2  O1  SO4 C 410     -16.121  80.635  36.596  1.00113.40    -0.565 OA
HETATM    3  O2  SO4 C 410     -17.907  82.153  37.297  1.00113.40    -0.565 OA
HETATM    4  O3  SO4 C 410     -18.003  81.212  35.204  1.00113.40    -0.565 OA
HETATM    5  O4  SO4 C 410     -18.348  79.856  37.058  1.00113.40    -0.565 OA
ENDROOT
TORSDOF 0
