REMARK  11 active torsions:
REMARK  status: ('A' for Active; 'I' for Inactive)
REMARK    1  A    between atoms: PA_10559  and  O3_10581 
REMARK    2  A    between atoms: PA_10559  and  O5B_10562 
REMARK    3  A    between atoms: O5B_10562  and  C5B_10563 
REMARK    4  A    between atoms: C5B_10563  and  C4B_10564 
REMARK    5  A    between atoms: C1B_10570  and  N9A_10571 
REMARK    6  A    between atoms: O3_10581  and  PN_10582 
REMARK    7  A    between atoms: PN_10582  and  O5D_10585 
REMARK    8  A    between atoms: O5D_10585  and  C5D_10586 
REMARK    9  A    between atoms: C5D_10586  and  C4D_10587 
REMARK   10  A    between atoms: C1D_10593  and  N1N_10594 
REMARK   11  A    between atoms: C3N_10596  and  C7N_10597 
ROOT
HETATM    1  PA  NAD D 404     -25.096  27.591  -9.672  1.00 37.57     0.418 P 
HETATM    2  O1A NAD D 404     -26.231  28.706  -9.914  1.00 37.57    -0.624 OA
HETATM    3  O2A NAD D 404     -25.509  26.231  -9.994  1.00 37.57    -0.624 OA
ENDROOT
BRANCH   1   4
HETATM    4  O3  NAD D 404     -23.865  28.168 -10.504  1.00 37.57    -0.180 OA
BRANCH   4   5
HETATM    5  PN  NAD D 404     -23.002  29.442 -10.124  1.00 37.57     0.418 P 
HETATM    6  O1N NAD D 404     -21.531  28.832 -10.001  1.00 37.57    -0.624 OA
HETATM    7  O2N NAD D 404     -23.404  30.251  -8.898  1.00 37.57    -0.624 OA
BRANCH   5   8
HETATM    8  O5D NAD D 404     -22.806  30.363 -11.468  1.00 37.57    -0.268 OA
BRANCH   8   9
HETATM    9  C5D NAD D 404     -23.975  30.037 -12.251  1.00 37.57     0.187 C 
BRANCH   9  10
HETATM   10  C4D NAD D 404     -25.032  31.122 -12.083  1.00 37.57     0.181 C 
HETATM   11  C3D NAD D 404     -26.355  30.919 -12.914  1.00 37.57     0.216 C 
HETATM   12  C2D NAD D 404     -26.206  31.881 -14.064  1.00 37.57     0.234 C 
HETATM   13  O3D NAD D 404     -27.541  31.154 -12.122  1.00 37.57    -0.218 OA
HETATM   14  O2D NAD D 404     -27.443  32.301 -14.627  1.00 37.57    -0.216 OA
HETATM   15  C1D NAD D 404     -25.420  33.005 -13.491  1.00 37.57     0.235 C 
HETATM   16  O4D NAD D 404     -24.520  32.417 -12.491  1.00 37.57    -0.331 OA
BRANCH  15  17
HETATM   17  N1N NAD D 404     -24.583  33.741 -14.500  1.00 37.57    -0.324 N 
HETATM   18  C2N NAD D 404     -25.172  34.779 -15.276  1.00 37.57     0.074 A 
HETATM   19  C3N NAD D 404     -24.381  35.451 -16.214  1.00 37.57     0.054 A 
HETATM   20  C4N NAD D 404     -22.950  35.101 -16.405  1.00 37.57     0.035 A 
HETATM   21  C5N NAD D 404     -22.386  34.048 -15.602  1.00 37.57     0.029 A 
HETATM   22  C6N NAD D 404     -23.182  33.344 -14.637  1.00 37.57     0.104 A 
BRANCH  19  23
HETATM   23  C7N NAD D 404     -25.035  36.555 -17.041  1.00 37.57     0.294 C 
HETATM   24  N7N NAD D 404     -26.305  36.870 -16.874  1.00 37.57    -0.103 N 
HETATM   25  O7N NAD D 404     -24.332  37.114 -17.844  1.00 37.57    -0.264 OA
ENDBRANCH  19  23
ENDBRANCH  15  17
ENDBRANCH   9  10
ENDBRANCH   8   9
ENDBRANCH   5   8
ENDBRANCH   4   5
ENDBRANCH   1   4
BRANCH   1  26
HETATM   26  O5B NAD D 404     -24.657  27.820  -8.345  1.00 37.57    -0.268 OA
BRANCH  26  27
HETATM   27  C5B NAD D 404     -24.349  27.347  -6.992  1.00 37.57     0.187 C 
BRANCH  27  28
HETATM   28  C4B NAD D 404     -23.914  28.436  -6.027  1.00 37.57     0.181 C 
HETATM   29  O4B NAD D 404     -25.087  28.753  -5.231  1.00 37.57    -0.331 OA
HETATM   30  C1B NAD D 404     -24.829  29.042  -3.884  1.00 37.57     0.241 C 
HETATM   31  C2B NAD D 404     -23.323  28.868  -3.750  1.00 37.57     0.234 C 
HETATM   32  C3B NAD D 404     -22.848  28.105  -4.993  1.00 37.57     0.216 C 
HETATM   33  O2B NAD D 404     -22.701  30.146  -3.570  1.00 37.57    -0.216 OA
HETATM   34  O3B NAD D 404     -21.577  28.531  -5.548  1.00 37.57    -0.218 OA
BRANCH  30  35
HETATM   35  N9A NAD D 404     -25.721  28.331  -2.871  1.00 37.57    -0.270 N 
HETATM   36  C4A NAD D 404     -25.597  27.103  -2.278  1.00 37.57     0.170 A 
HETATM   37  N3A NAD D 404     -24.613  26.172  -2.450  1.00 37.57    -0.205 NA
HETATM   38  C5A NAD D 404     -26.712  26.991  -1.432  1.00 37.57     0.155 A 
HETATM   39  C2A NAD D 404     -24.751  25.043  -1.728  1.00 37.57     0.202 A 
HETATM   40  N1A NAD D 404     -25.831  24.837  -0.854  1.00 37.57    -0.202 NA
HETATM   41  C6A NAD D 404     -26.852  25.772  -0.657  1.00 37.57     0.206 A 
HETATM   42  N6A NAD D 404     -27.807  25.514   0.158  1.00 37.57    -0.125 N 
HETATM   43  N7A NAD D 404     -27.489  28.092  -1.500  1.00 37.57    -0.219 NA
HETATM   44  C8A NAD D 404     -26.856  28.872  -2.376  1.00 37.57     0.182 A 
ENDBRANCH  30  35
ENDBRANCH  27  28
ENDBRANCH  26  27
ENDBRANCH   1  26
TORSDOF 11
