REMARK  11 active torsions:
REMARK  status: ('A' for Active; 'I' for Inactive)
REMARK    1  A    between atoms: PA_10484  and  O3_10506 
REMARK    2  A    between atoms: PA_10484  and  O5B_10487 
REMARK    3  A    between atoms: O5B_10487  and  C5B_10488 
REMARK    4  A    between atoms: C5B_10488  and  C4B_10489 
REMARK    5  A    between atoms: C1B_10495  and  N9A_10496 
REMARK    6  A    between atoms: O3_10506  and  PN_10507 
REMARK    7  A    between atoms: PN_10507  and  O5D_10510 
REMARK    8  A    between atoms: O5D_10510  and  C5D_10511 
REMARK    9  A    between atoms: C5D_10511  and  C4D_10512 
REMARK   10  A    between atoms: C1D_10518  and  N1N_10519 
REMARK   11  A    between atoms: C3N_10521  and  C7N_10522 
ROOT
HETATM    1  PA  NAD C 403     -17.929  97.595  32.669  1.00 36.63     0.418 P 
HETATM    2  O1A NAD C 403     -18.445  98.681  31.594  1.00 36.63    -0.624 OA
HETATM    3  O2A NAD C 403     -18.945  96.646  33.108  1.00 36.63    -0.624 OA
ENDROOT
BRANCH   1   4
HETATM    4  O3  NAD C 403     -16.639  96.976  31.927  1.00 36.63    -0.180 OA
BRANCH   4   5
HETATM    5  PN  NAD C 403     -15.394  97.808  31.386  1.00 36.63     0.418 P 
HETATM    6  O2N NAD C 403     -15.387  99.309  31.546  1.00 36.63    -0.624 OA
HETATM    7  O1N NAD C 403     -14.176  97.145  32.177  1.00 36.63    -0.624 OA
BRANCH   5   8
HETATM    8  O5D NAD C 403     -15.068  97.300  29.858  1.00 36.63    -0.268 OA
BRANCH   8   9
HETATM    9  C5D NAD C 403     -16.363  97.344  29.220  1.00 36.63     0.187 C 
BRANCH   9  10
HETATM   10  C4D NAD C 403     -16.664  98.733  28.614  1.00 36.63     0.181 C 
HETATM   11  O4D NAD C 403     -15.681  99.175  27.610  1.00 36.63    -0.331 OA
HETATM   12  C1D NAD C 403     -16.410  99.548  26.379  1.00 36.63     0.239 C 
HETATM   13  C2D NAD C 403     -17.633  98.723  26.436  1.00 36.63     0.234 C 
HETATM   14  C3D NAD C 403     -18.044  98.856  27.870  1.00 36.63     0.216 C 
HETATM   15  O2D NAD C 403     -18.619  99.090  25.495  1.00 36.63    -0.216 OA
HETATM   16  O3D NAD C 403     -18.713 100.097  28.174  1.00 36.63    -0.218 OA
BRANCH  12  17
HETATM   17  N1N NAD C 403     -15.548  99.265  25.180  1.00 36.63    -0.301 N 
HETATM   18  C6N NAD C 403     -14.461  98.318  25.344  1.00 36.63     0.073 A 
HETATM   19  C5N NAD C 403     -13.640  98.039  24.207  1.00 36.63    -0.003 A 
HETATM   20  C4N NAD C 403     -13.882  98.668  22.945  1.00 36.63     0.060 A 
HETATM   21  C3N NAD C 403     -15.008  99.628  22.835  1.00 36.63     0.059 A 
HETATM   22  C2N NAD C 403     -15.821  99.916  23.942  1.00 36.63     0.079 A 
BRANCH  21  23
HETATM   23  C7N NAD C 403     -15.307 100.323  21.495  1.00 36.63     0.295 C 
HETATM   24  N7N NAD C 403     -16.294 101.178  21.359  1.00 36.63    -0.103 N 
HETATM   25  O7N NAD C 403     -14.591 100.039  20.579  1.00 36.63    -0.264 OA
ENDBRANCH  21  23
ENDBRANCH  12  17
ENDBRANCH   9  10
ENDBRANCH   8   9
ENDBRANCH   5   8
ENDBRANCH   4   5
ENDBRANCH   1   4
BRANCH   1  26
HETATM   26  O5B NAD C 403     -17.310  98.361  33.691  1.00 36.63    -0.268 OA
BRANCH  26  27
HETATM   27  C5B NAD C 403     -17.144  98.693  35.101  1.00 36.63     0.187 C 
BRANCH  27  28
HETATM   28  C4B NAD C 403     -16.185  99.824  35.395  1.00 36.63     0.181 C 
HETATM   29  O4B NAD C 403     -17.011 100.951  35.801  1.00 36.63    -0.331 OA
HETATM   30  C1B NAD C 403     -16.489 101.731  36.819  1.00 36.63     0.241 C 
HETATM   31  C2B NAD C 403     -15.182 101.047  37.182  1.00 36.63     0.234 C 
HETATM   32  C3B NAD C 403     -15.203  99.662  36.538  1.00 36.63     0.216 C 
HETATM   33  O2B NAD C 403     -14.079 101.855  36.758  1.00 36.63    -0.216 OA
HETATM   34  O3B NAD C 403     -13.962  99.242  35.936  1.00 36.63    -0.218 OA
BRANCH  30  35
HETATM   35  N9A NAD C 403     -17.459 102.072  37.925  1.00 36.63    -0.270 N 
HETATM   36  C4A NAD C 403     -17.795 101.404  39.066  1.00 36.63     0.170 A 
HETATM   37  N3A NAD C 403     -17.330 100.209  39.521  1.00 36.63    -0.205 NA
HETATM   38  C5A NAD C 403     -18.748 102.231  39.709  1.00 36.63     0.155 A 
HETATM   39  C2A NAD C 403     -17.851  99.801  40.703  1.00 36.63     0.202 A 
HETATM   40  N1A NAD C 403     -18.800 100.555  41.417  1.00 36.63    -0.202 NA
HETATM   41  C6A NAD C 403     -19.294 101.784  40.976  1.00 36.63     0.206 A 
HETATM   42  N6A NAD C 403     -20.158 102.418  41.677  1.00 36.63    -0.125 N 
HETATM   43  N7A NAD C 403     -18.986 103.343  38.994  1.00 36.63    -0.219 NA
HETATM   44  C8A NAD C 403     -18.189 103.204  37.931  1.00 36.63     0.182 A 
ENDBRANCH  30  35
ENDBRANCH  27  28
ENDBRANCH  26  27
ENDBRANCH   1  26
TORSDOF 11
