REMARK  0 active torsions:
REMARK  status: ('A' for Active; 'I' for Inactive)
ROOT
HETATM    1  S   SO4 B 413     -39.021  51.412  75.147  1.00 77.68     0.261 S 
HETATM    2  O1  SO4 B 413     -38.277  49.970  75.198  1.00 77.68    -0.565 OA
HETATM    3  O2  SO4 B 413     -39.998  51.380  76.222  1.00 77.68    -0.565 OA
HETATM    4  O3  SO4 B 413     -38.150  52.375  75.285  1.00 77.68    -0.565 OA
HETATM    5  O4  SO4 B 413     -39.705  51.354  73.886  1.00 77.68    -0.565 OA
ENDROOT
TORSDOF 0
