REMARK  0 active torsions:
REMARK  status: ('A' for Active; 'I' for Inactive)
ROOT
HETATM    1  S   SO4 A 406     -16.550  62.667   9.103  1.00103.09     0.261 S 
HETATM    2  O1  SO4 A 406     -15.235  62.005   9.789  1.00103.09    -0.565 OA
HETATM    3  O2  SO4 A 406     -17.065  63.611  10.081  1.00103.09    -0.565 OA
HETATM    4  O3  SO4 A 406     -16.224  63.234   7.977  1.00103.09    -0.565 OA
HETATM    5  O4  SO4 A 406     -17.451  61.550   9.003  1.00103.09    -0.565 OA
ENDROOT
TORSDOF 0
