REMARK  11 active torsions:
REMARK  status: ('A' for Active; 'I' for Inactive)
REMARK    1  A    between atoms: PA_10335  and  O5B_10338 
REMARK    2  A    between atoms: PA_10335  and  O3_10357 
REMARK    3  A    between atoms: O5B_10338  and  C5B_10339 
REMARK    4  A    between atoms: C5B_10339  and  C4B_10340 
REMARK    5  A    between atoms: C1B_10346  and  N9A_10347 
REMARK    6  A    between atoms: O3_10357  and  PN_10358 
REMARK    7  A    between atoms: PN_10358  and  O5D_10361 
REMARK    8  A    between atoms: O5D_10361  and  C5D_10362 
REMARK    9  A    between atoms: C5D_10362  and  C4D_10363 
REMARK   10  A    between atoms: C1D_10369  and  N1N_10370 
REMARK   11  A    between atoms: C3N_10372  and  C7N_10373 
ROOT
HETATM    1  PA  NAD A 401      -8.882  62.031  33.451  1.00 32.38     0.418 P 
HETATM    2  O1A NAD A 401      -7.873  60.849  33.866  1.00 32.38    -0.624 OA
HETATM    3  O2A NAD A 401      -9.410  62.820  34.566  1.00 32.38    -0.624 OA
ENDROOT
BRANCH   1   4
HETATM    4  O5B NAD A 401      -9.832  61.379  32.628  1.00 32.38    -0.268 OA
BRANCH   4   5
HETATM    5  C5B NAD A 401     -11.208  61.073  32.275  1.00 32.38     0.187 C 
BRANCH   5   6
HETATM    6  C4B NAD A 401     -11.360  60.121  31.118  1.00 32.38     0.181 C 
HETATM    7  C3B NAD A 401     -12.445  60.409  30.094  1.00 32.38     0.216 C 
HETATM    8  C2B NAD A 401     -13.001  59.027  29.765  1.00 32.38     0.234 C 
HETATM    9  O3B NAD A 401     -11.802  61.093  28.993  1.00 32.38    -0.218 OA
HETATM   10  C1B NAD A 401     -12.653  58.112  30.926  1.00 32.38     0.241 C 
HETATM   11  O2B NAD A 401     -12.489  58.485  28.549  1.00 32.38    -0.216 OA
HETATM   12  O4B NAD A 401     -11.723  58.834  31.679  1.00 32.38    -0.331 OA
BRANCH  10  13
HETATM   13  N9A NAD A 401     -13.807  57.449  31.687  1.00 32.38    -0.270 N 
HETATM   14  C8A NAD A 401     -13.754  56.169  32.137  1.00 32.38     0.182 A 
HETATM   15  N7A NAD A 401     -14.854  55.760  32.763  1.00 32.38    -0.219 NA
HETATM   16  C5A NAD A 401     -15.661  56.836  32.712  1.00 32.38     0.155 A 
HETATM   17  C6A NAD A 401     -17.009  57.036  33.212  1.00 32.38     0.206 A 
HETATM   18  C4A NAD A 401     -15.038  57.915  32.047  1.00 32.38     0.170 A 
HETATM   19  N6A NAD A 401     -17.708  56.158  33.834  1.00 32.38    -0.125 N 
HETATM   20  N1A NAD A 401     -17.536  58.306  32.966  1.00 32.38    -0.202 NA
HETATM   21  C2A NAD A 401     -16.830  59.315  32.292  1.00 32.38     0.202 A 
HETATM   22  N3A NAD A 401     -15.576  59.137  31.823  1.00 32.38    -0.205 NA
ENDBRANCH  10  13
ENDBRANCH   5   6
ENDBRANCH   4   5
ENDBRANCH   1   4
BRANCH   1  23
HETATM   23  O3  NAD A 401      -8.029  62.841  32.360  1.00 32.38    -0.180 OA
BRANCH  23  24
HETATM   24  PN  NAD A 401      -7.529  62.267  30.962  1.00 32.38     0.418 P 
HETATM   25  O1N NAD A 401      -8.118  63.317  29.916  1.00 32.38    -0.624 OA
HETATM   26  O2N NAD A 401      -7.915  60.847  30.584  1.00 32.38    -0.624 OA
BRANCH  24  27
HETATM   27  O5D NAD A 401      -5.932  62.597  30.824  1.00 32.38    -0.268 OA
BRANCH  27  28
HETATM   28  C5D NAD A 401      -5.456  62.532  32.185  1.00 32.38     0.187 C 
BRANCH  28  29
HETATM   29  C4D NAD A 401      -4.699  61.216  32.408  1.00 32.38     0.181 C 
HETATM   30  C3D NAD A 401      -4.084  61.005  33.841  1.00 32.38     0.216 C 
HETATM   31  O3D NAD A 401      -4.274  59.648  34.324  1.00 32.38    -0.218 OA
HETATM   32  C2D NAD A 401      -2.653  61.358  33.622  1.00 32.38     0.234 C 
HETATM   33  O2D NAD A 401      -1.797  60.909  34.651  1.00 32.38    -0.216 OA
HETATM   34  C1D NAD A 401      -2.370  60.747  32.310  1.00 32.38     0.235 C 
HETATM   35  O4D NAD A 401      -3.558  61.049  31.505  1.00 32.38    -0.331 OA
BRANCH  34  36
HETATM   36  N1N NAD A 401      -1.167  61.308  31.613  1.00 32.38    -0.324 N 
HETATM   37  C2N NAD A 401       0.134  60.764  31.875  1.00 32.38     0.074 A 
HETATM   38  C3N NAD A 401       1.243  61.321  31.204  1.00 32.38     0.054 A 
HETATM   39  C4N NAD A 401       1.081  62.440  30.247  1.00 32.38     0.035 A 
HETATM   40  C5N NAD A 401      -0.239  62.958  30.010  1.00 32.38     0.029 A 
HETATM   41  C6N NAD A 401      -1.387  62.413  30.681  1.00 32.38     0.104 A 
BRANCH  38  42
HETATM   42  C7N NAD A 401       2.633  60.748  31.482  1.00 32.38     0.294 C 
HETATM   43  N7N NAD A 401       2.811  59.751  32.332  1.00 32.38    -0.103 N 
HETATM   44  O7N NAD A 401       3.550  61.264  30.881  1.00 32.38    -0.264 OA
ENDBRANCH  38  42
ENDBRANCH  34  36
ENDBRANCH  28  29
ENDBRANCH  27  28
ENDBRANCH  24  27
ENDBRANCH  23  24
ENDBRANCH   1  23
TORSDOF 11
