REMARK  1 active torsions:
REMARK  status: ('A' for Active; 'I' for Inactive)
REMARK    1  A    between atoms: C14_17  and  C15_18 
ROOT
ATOM      1  C1  HUB d           4.333  64.128  63.256  0.00  0.00     0.245 A 
ATOM      2  O1  HUB d           4.519  62.949  63.568  0.00  0.00    -0.268 OA
ATOM      3  N1  HUB d           3.601  64.960  64.098  0.00  0.00    -0.327 N 
ATOM      4  C2  HUB d           4.839  64.725  62.033  0.00  0.00    -0.017 A 
ATOM      5  C3  HUB d           4.595  66.045  61.752  0.00  0.00    -0.067 A 
ATOM      6  C4  HUB d           3.842  66.906  62.631  0.00  0.00     0.001 A 
ATOM      7  C5  HUB d           3.323  66.313  63.833  0.00  0.00     0.021 A 
ATOM      8  C6  HUB d           2.494  67.064  64.857  0.00  0.00    -0.019 C 
ATOM      9  C7  HUB d           2.139  68.569  64.417  0.00  0.00    -0.026 C 
ATOM     10  C8  HUB d           0.883  68.596  63.508  0.00  0.00    -0.096 C 
ATOM     11  C9  HUB d           5.746  69.870  63.671  0.00  0.00    -0.042 C 
ATOM     12  C10 HUB d           4.591  69.243  64.470  0.00  0.00    -0.057 C 
ATOM     13  C11 HUB d           3.303  69.216  63.628  0.00  0.00    -0.010 C 
ATOM     14  C12 HUB d           3.559  68.454  62.291  0.00  0.00     0.162 C 
ATOM     15  N2  HUB d           4.716  69.074  61.543  0.00  0.00    -0.061 N 
ATOM     16  C13 HUB d           2.287  68.502  61.384  0.00  0.00    -0.009 C 
ATOM     17  C14 HUB d           0.957  68.568  62.126  0.00  0.00    -0.084 C 
ATOM     18  C90 HUB d           6.035  69.118  62.381  0.00  0.00     0.083 C 
ATOM     19  H1  HUB d           3.250  64.570  64.949  0.00  0.00     0.169 HD
ATOM     20  H2  HUB d           5.416  64.121  61.333  0.00  0.00     0.092 H 
ATOM     21  H3  HUB d           4.987  66.461  60.825  0.00  0.00     0.084 H 
ATOM     22  H4  HUB d           3.058  67.101  65.801  0.00  0.00     0.043 H 
ATOM     23  H5  HUB d           1.553  66.516  65.013  0.00  0.00     0.043 H 
ATOM     24  H6  HUB d           1.944  69.162  65.323  0.00  0.00     0.047 H 
ATOM     25  H7  HUB d          -0.099  68.640  63.976  0.00  0.00     0.077 H 
ATOM     26  H8  HUB d           6.653  69.862  64.294  0.00  0.00     0.035 H 
ATOM     27  H9  HUB d           5.480  70.908  63.423  0.00  0.00     0.035 H 
ATOM     28  H10 HUB d           4.862  68.214  64.751  0.00  0.00     0.033 H 
ATOM     29  H11 HUB d           4.417  69.836  65.380  0.00  0.00     0.033 H 
ATOM     30  H12 HUB d           3.022  70.252  63.390  0.00  0.00     0.045 H 
ATOM     31  H13 HUB d           4.465  70.017  61.289  0.00  0.00     0.278 HD
ATOM     32  H14 HUB d           4.883  68.535  60.708  0.00  0.00     0.278 HD
ATOM     33  H15 HUB d           2.283  67.598  60.758  0.00  0.00     0.043 H 
ATOM     34  H16 HUB d           2.361  69.392  60.742  0.00  0.00     0.043 H 
ATOM     35  H20 HUB d           6.364  68.093  62.611  0.00  0.00     0.075 H 
ATOM     36  H21 HUB d           6.820  69.637  61.814  0.00  0.00     0.075 H 
ENDROOT
BRANCH  17  37
ATOM     37  C15 HUB d          -0.247  68.605  61.219  0.00  0.00    -0.055 C 
ATOM     38  H17 HUB d          -1.162  68.646  61.827  0.00  0.00     0.033 H 
ATOM     39  H18 HUB d          -0.263  67.701  60.593  0.00  0.00     0.033 H 
ATOM     40  H19 HUB d          -0.194  69.496  60.575  0.00  0.00     0.033 H 
ENDBRANCH  17  37
TORSDOF 1
