MODEL        1
REMARK VINA RESULT:  -7.170   0.000  0.000 
REMARK 921   NORMALIZED FREE ENERGY PREDICTED BY IDOCK:   -7.17 KCAL/MOL
REMARK 922        TOTAL FREE ENERGY PREDICTED BY IDOCK:  -13.48 KCAL/MOL
REMARK 923 INTER-LIGAND FREE ENERGY PREDICTED BY IDOCK:  -11.78 KCAL/MOL
REMARK 924 INTRA-LIGAND FREE ENERGY PREDICTED BY IDOCK:   -1.70 KCAL/MOL
REMARK 927      BINDING AFFINITY PREDICTED BY RF-SCORE:    6.99 PKD
ROOT
ATOM      1  C   UNK A   0      49.245  18.302  -8.404  0.00  0.00    -0.225 C 
ATOM      2  P   UNK A   0      48.940  18.556 -10.008  0.00  0.00    -0.307 P 
ATOM      3  O   UNK A   0      48.664  17.207 -10.795  0.00  0.00    -0.196 OA
ATOM      4  O   UNK A   0      50.065  19.425 -10.687  0.00  0.00    -0.285 OA
ATOM      5  N   UNK A   0      47.273  19.458  -9.911  0.00  0.00    -0.328 N 
ATOM      6  O   UNK A   0      46.682  18.085  -9.702  0.00  0.00    -0.220 OA
ATOM      7  C   UNK A   0      46.889  17.571  -8.550  0.00  0.00    -0.224 C 
ATOM      8  H   UNK A   0      46.820  19.658  -9.042  0.00  0.00     0.000 HD
ATOM      9  N   UNK A   0      48.040  17.615  -7.862  0.00  0.00    -0.097 NA
ATOM     10  H   UNK A   0      48.090  17.175  -6.965  0.00  0.00     0.000 HD
ENDROOT
BRANCH   5  11
ATOM     11  C   UNK A   0      46.696  19.843 -11.208  0.00  0.00    -0.271 C 
BRANCH  11  12
ATOM     12  C   UNK A   0      47.668  20.521 -12.184  0.00  0.00    -0.329 C 
ATOM     13  N   ALA A   1      48.098  21.717 -11.829  0.00  0.00    -0.495 N 
ATOM     14  H   ALA A   1      47.810  22.061 -10.936  0.00  0.00     0.000 HD
ATOM     15  O   UNK A   0      47.965  20.000 -13.266  0.00  0.00    -0.291 OA
BRANCH  13  16
ATOM     16  CA  ALA A   1      48.972  22.586 -12.642  0.00  0.00    -0.382 C 
ATOM     17  CB  ALA A   1      48.153  23.768 -13.127  0.00  0.00    -0.606 C 
BRANCH  16  18
ATOM     18  C   ALA A   1      50.190  23.067 -11.815  0.00  0.00    -0.373 C 
ATOM     19  OXT ALA A   1      50.469  22.712 -10.611  0.00  0.00    -0.546 OA
ATOM     20  O   ALA A   1      50.955  23.947 -12.262  0.00  0.00    -0.515 OA
ENDBRANCH  16  18
ENDBRANCH  13  16
ENDBRANCH  11  12
BRANCH  11  21
ATOM     21  C   UNK A   0      45.503  20.796 -11.062  0.00  0.00    -0.340 C 
BRANCH  21  22
ATOM     22  C   UNK A   0      44.483  20.656 -12.168  0.00  0.00    -0.564 C 
ATOM     23  C   UNK A   0      44.865  21.546 -13.366  0.00  0.00    -0.517 C 
ATOM     24  C   UNK A   0      44.584  19.169 -12.432  0.00  0.00    -0.434 C 
ENDBRANCH  21  22
ENDBRANCH  11  21
ENDBRANCH   5  11
BRANCH   7  25
ATOM     25  O   UNK A   0      45.994  16.826  -7.812  0.00  0.00    -0.308 OA
BRANCH  25  26
ATOM     26  C   UNK A   0      44.581  16.917  -8.057  0.00  0.00    -0.420 C 
BRANCH  26  27
ATOM     27  C   UNK A   0      44.399  15.918  -9.144  0.00  0.00    -0.167 A 
ATOM     28  C   UNK A   0      43.898  16.104 -10.438  0.00  0.00    -0.171 A 
ATOM     29  C   UNK A   0      43.822  15.071 -11.409  0.00  0.00    -0.173 A 
ATOM     30  C   UNK A   0      44.261  13.838 -11.178  0.00  0.00    -0.149 A 
ATOM     31  C   UNK A   0      44.707  13.737  -9.923  0.00  0.00    -0.144 A 
ATOM     32  C   UNK A   0      44.834  14.678  -8.880  0.00  0.00    -0.138 A 
ENDBRANCH  26  27
ENDBRANCH  25  26
ENDBRANCH   7  25
BRANCH   1  33
ATOM     33  C   UNK A   0      50.341  17.303  -8.237  0.00  0.00    -0.379 C 
BRANCH  33  34
ATOM     34  C   UNK A   0      51.213  17.825  -7.113  0.00  0.00    -0.392 A 
ATOM     35  C   UNK A   0      51.659  17.001  -6.111  0.00  0.00    -0.164 A 
ATOM     36  C   UNK A   0      52.451  17.550  -5.091  0.00  0.00    -0.194 A 
ATOM     37  C   UNK A   0      52.751  18.944  -5.097  0.00  0.00    -0.483 A 
ATOM     38  C   UNK A   0      52.261  19.771  -6.100  0.00  0.00    -0.492 A 
ATOM     39  C   UNK A   0      51.482  19.200  -7.114  0.00  0.00    -0.456 A 
ENDBRANCH  33  34
ENDBRANCH   1  33
TORSDOF 11
ENDMDL
MODEL        2
REMARK VINA RESULT:  -7.090   0.000  0.000 
REMARK 921   NORMALIZED FREE ENERGY PREDICTED BY IDOCK:   -7.09 KCAL/MOL
REMARK 922        TOTAL FREE ENERGY PREDICTED BY IDOCK:  -13.35 KCAL/MOL
REMARK 923 INTER-LIGAND FREE ENERGY PREDICTED BY IDOCK:  -11.74 KCAL/MOL
REMARK 924 INTRA-LIGAND FREE ENERGY PREDICTED BY IDOCK:   -1.60 KCAL/MOL
REMARK 927      BINDING AFFINITY PREDICTED BY RF-SCORE:    7.19 PKD
ROOT
ATOM      1  C   UNK A   0      48.517  19.443 -11.578  0.00  0.00    -0.279 C 
ATOM      2  P   UNK A   0      47.265  18.467 -12.037  0.00  0.00    -0.218 P 
ATOM      3  O   UNK A   0      47.760  17.129 -12.730  0.00  0.00    -0.167 OA
ATOM      4  O   UNK A   0      46.212  19.242 -12.917  0.00  0.00    -0.244 OA
ATOM      5  N   UNK A   0      46.575  17.958 -10.344  0.00  0.00    -0.199 N 
ATOM      6  O   UNK A   0      47.725  16.981 -10.306  0.00  0.00    -0.177 OA
ATOM      7  C   UNK A   0      48.874  17.499 -10.095  0.00  0.00    -0.243 C 
ATOM      8  H   UNK A   0      46.972  18.279  -9.484  0.00  0.00     0.000 HD
ATOM      9  N   UNK A   0      49.339  18.636 -10.634  0.00  0.00    -0.281 NA
ATOM     10  H   UNK A   0      50.259  18.949 -10.398  0.00  0.00     0.000 HD
ENDROOT
BRANCH   5  11
ATOM     11  C   UNK A   0      45.413  17.058 -10.389  0.00  0.00    -0.164 C 
BRANCH  11  12
ATOM     12  C   UNK A   0      45.061  16.373  -9.059  0.00  0.00    -0.169 C 
ATOM     13  N   ALA A   1      45.519  15.146  -8.905  0.00  0.00    -0.123 N 
ATOM     14  H   ALA A   1      46.102  14.781  -9.630  0.00  0.00     0.000 HD
ATOM     15  O   UNK A   0      44.333  16.923  -8.224  0.00  0.00    -0.355 OA
BRANCH  13  16
ATOM     16  CA  ALA A   1      45.241  14.270  -7.749  0.00  0.00    -0.169 C 
ATOM     17  CB  ALA A   1      44.627  12.981  -8.263  0.00  0.00    -0.193 C 
BRANCH  16  18
ATOM     18  C   ALA A   1      46.541  13.979  -6.957  0.00  0.00    -0.134 C 
ATOM     19  OXT ALA A   1      46.633  13.855  -5.682  0.00  0.00    -0.664 OA
ATOM     20  O   ALA A   1      47.645  13.945  -7.540  0.00  0.00    -0.179 OA
ENDBRANCH  16  18
ENDBRANCH  13  16
ENDBRANCH  11  12
BRANCH  11  21
ATOM     21  C   UNK A   0      45.579  15.931 -11.417  0.00  0.00    -0.138 C 
BRANCH  21  22
ATOM     22  C   UNK A   0      44.317  15.633 -12.191  0.00  0.00    -0.191 C 
ATOM     23  C   UNK A   0      44.271  16.469 -13.485  0.00  0.00    -0.611 C 
ATOM     24  C   UNK A   0      44.489  14.145 -12.410  0.00  0.00    -0.141 C 
ENDBRANCH  21  22
ENDBRANCH  11  21
ENDBRANCH   5  11
BRANCH   7  25
ATOM     25  O   UNK A   0      49.882  16.968  -9.318  0.00  0.00    -0.283 OA
BRANCH  25  26
ATOM     26  C   UNK A   0      49.643  16.608  -7.947  0.00  0.00    -0.232 C 
BRANCH  26  27
ATOM     27  C   UNK A   0      50.519  17.569  -7.226  0.00  0.00    -0.366 A 
ATOM     28  C   UNK A   0      50.579  18.963  -7.338  0.00  0.00    -0.428 A 
ATOM     29  C   UNK A   0      51.431  19.780  -6.549  0.00  0.00    -0.480 A 
ATOM     30  C   UNK A   0      52.221  19.286  -5.601  0.00  0.00    -0.516 A 
ATOM     31  C   UNK A   0      52.118  17.954  -5.567  0.00  0.00    -0.344 A 
ATOM     32  C   UNK A   0      51.319  17.043  -6.287  0.00  0.00    -0.332 A 
ENDBRANCH  26  27
ENDBRANCH  25  26
ENDBRANCH   7  25
BRANCH   1  33
ATOM     33  C   UNK A   0      49.428  19.695 -12.733  0.00  0.00    -0.541 C 
BRANCH  33  34
ATOM     34  C   UNK A   0      49.894  21.129 -12.592  0.00  0.00    -0.524 A 
ATOM     35  C   UNK A   0      49.222  22.163 -13.193  0.00  0.00    -0.353 A 
ATOM     36  C   UNK A   0      49.715  23.468 -13.035  0.00  0.00    -0.504 A 
ATOM     37  C   UNK A   0      50.907  23.691 -12.287  0.00  0.00    -0.558 A 
ATOM     38  C   UNK A   0      51.595  22.628 -11.714  0.00  0.00    -0.608 A 
ATOM     39  C   UNK A   0      51.080  21.336 -11.875  0.00  0.00    -0.636 A 
ENDBRANCH  33  34
ENDBRANCH   1  33
TORSDOF 11
ENDMDL
MODEL        3
REMARK VINA RESULT:  -6.930   0.000  0.000 
REMARK 921   NORMALIZED FREE ENERGY PREDICTED BY IDOCK:   -6.93 KCAL/MOL
REMARK 922        TOTAL FREE ENERGY PREDICTED BY IDOCK:  -13.09 KCAL/MOL
REMARK 923 INTER-LIGAND FREE ENERGY PREDICTED BY IDOCK:  -11.48 KCAL/MOL
REMARK 924 INTRA-LIGAND FREE ENERGY PREDICTED BY IDOCK:   -1.62 KCAL/MOL
REMARK 927      BINDING AFFINITY PREDICTED BY RF-SCORE:    6.97 PKD
ROOT
ATOM      1  C   UNK A   0      48.510  19.764 -11.311  0.00  0.00    -0.274 C 
ATOM      2  P   UNK A   0      47.711  18.321 -11.207  0.00  0.00    -0.222 P 
ATOM      3  O   UNK A   0      48.643  17.085 -11.549  0.00  0.00    -0.190 OA
ATOM      4  O   UNK A   0      46.385  18.324 -12.060  0.00  0.00    -0.202 OA
ATOM      5  N   UNK A   0      47.383  18.232  -9.340  0.00  0.00    -0.271 N 
ATOM      6  O   UNK A   0      48.823  17.793  -9.233  0.00  0.00    -0.239 OA
ATOM      7  C   UNK A   0      49.690  18.714  -9.411  0.00  0.00    -0.366 C 
ATOM      8  H   UNK A   0      47.677  18.950  -8.709  0.00  0.00     0.000 HD
ATOM      9  N   UNK A   0      49.640  19.677 -10.345  0.00  0.00    -0.303 NA
ATOM     10  H   UNK A   0      50.378  20.349 -10.394  0.00  0.00     0.000 HD
ENDROOT
BRANCH   5  11
ATOM     11  C   UNK A   0      46.664  17.031  -8.889  0.00  0.00    -0.189 C 
BRANCH  11  12
ATOM     12  C   UNK A   0      47.543  15.934  -8.268  0.00  0.00    -0.154 C 
ATOM     13  N   ALA A   1      48.089  15.086  -9.118  0.00  0.00    -0.157 N 
ATOM     14  H   ALA A   1      47.940  15.254 -10.092  0.00  0.00     0.000 HD
ATOM     15  O   UNK A   0      47.664  15.822  -7.043  0.00  0.00    -0.245 OA
BRANCH  13  16
ATOM     16  CA  ALA A   1      48.902  13.911  -8.747  0.00  0.00    -0.162 C 
ATOM     17  CB  ALA A   1      48.412  12.718  -9.547  0.00  0.00    -0.145 C 
BRANCH  16  18
ATOM     18  C   ALA A   1      50.404  14.174  -9.023  0.00  0.00    -0.189 C 
ATOM     19  OXT ALA A   1      51.366  13.353  -8.796  0.00  0.00    -0.251 OA
ATOM     20  O   ALA A   1      50.791  15.297  -9.411  0.00  0.00    -0.290 OA
ENDBRANCH  16  18
ENDBRANCH  13  16
ENDBRANCH  11  12
BRANCH  11  21
ATOM     21  C   UNK A   0      45.875  16.358 -10.019  0.00  0.00    -0.166 C 
BRANCH  21  22
ATOM     22  C   UNK A   0      44.412  16.162  -9.698  0.00  0.00    -0.160 C 
ATOM     23  C   UNK A   0      44.164  14.737  -9.170  0.00  0.00    -0.160 C 
ATOM     24  C   UNK A   0      44.222  17.256  -8.668  0.00  0.00    -0.609 C 
ENDBRANCH  21  22
ENDBRANCH  11  21
ENDBRANCH   5  11
BRANCH   7  25
ATOM     25  O   UNK A   0      50.872  18.871  -8.719  0.00  0.00    -0.532 OA
BRANCH  25  26
ATOM     26  C   UNK A   0      50.992  19.855  -7.678  0.00  0.00    -0.489 C 
BRANCH  26  27
ATOM     27  C   UNK A   0      51.576  19.053  -6.570  0.00  0.00    -0.454 A 
ATOM     28  C   UNK A   0      51.272  17.746  -6.172  0.00  0.00    -0.415 A 
ATOM     29  C   UNK A   0      51.943  17.067  -5.121  0.00  0.00     0.042 A 
ATOM     30  C   UNK A   0      52.954  17.609  -4.449  0.00  0.00    -0.344 A 
ATOM     31  C   UNK A   0      53.172  18.856  -4.876  0.00  0.00    -0.360 A 
ATOM     32  C   UNK A   0      52.582  19.629  -5.896  0.00  0.00    -0.508 A 
ENDBRANCH  26  27
ENDBRANCH  25  26
ENDBRANCH   7  25
BRANCH   1  33
ATOM     33  C   UNK A   0      49.174  19.894 -12.640  0.00  0.00    -0.533 C 
BRANCH  33  34
ATOM     34  C   UNK A   0      49.711  21.310 -12.701  0.00  0.00    -0.450 A 
ATOM     35  C   UNK A   0      48.906  22.368 -13.039  0.00  0.00    -0.364 A 
ATOM     36  C   UNK A   0      49.469  23.652 -13.092  0.00  0.00    -0.517 A 
ATOM     37  C   UNK A   0      50.858  23.830 -12.827  0.00  0.00    -0.385 A 
ATOM     38  C   UNK A   0      51.668  22.742 -12.523  0.00  0.00    -0.630 A 
ATOM     39  C   UNK A   0      51.083  21.471 -12.465  0.00  0.00    -0.593 A 
ENDBRANCH  33  34
ENDBRANCH   1  33
TORSDOF 11
ENDMDL
MODEL        4
REMARK VINA RESULT:  -6.550   0.000  0.000 
REMARK 921   NORMALIZED FREE ENERGY PREDICTED BY IDOCK:   -6.55 KCAL/MOL
REMARK 922        TOTAL FREE ENERGY PREDICTED BY IDOCK:  -12.46 KCAL/MOL
REMARK 923 INTER-LIGAND FREE ENERGY PREDICTED BY IDOCK:  -11.60 KCAL/MOL
REMARK 924 INTRA-LIGAND FREE ENERGY PREDICTED BY IDOCK:   -0.86 KCAL/MOL
REMARK 927      BINDING AFFINITY PREDICTED BY RF-SCORE:    7.46 PKD
ROOT
ATOM      1  C   UNK A   0      51.804  17.796  -4.787  0.00  0.00     0.129 C 
ATOM      2  P   UNK A   0      51.135  18.110  -6.264  0.00  0.00    -0.322 P 
ATOM      3  O   UNK A   0      52.147  17.855  -7.457  0.00  0.00    -0.184 OA
ATOM      4  O   UNK A   0      50.493  19.549  -6.321  0.00  0.00    -0.054 OA
ATOM      5  N   UNK A   0      49.841  16.725  -6.367  0.00  0.00    -0.392 N 
ATOM      6  O   UNK A   0      51.002  15.836  -6.741  0.00  0.00    -0.400 OA
ATOM      7  C   UNK A   0      51.790  15.534  -5.782  0.00  0.00     0.259 C 
ATOM      8  H   UNK A   0      49.714  16.054  -5.637  0.00  0.00     0.000 HD
ATOM      9  N   UNK A   0      52.223  16.367  -4.823  0.00  0.00    -0.742 NA
ATOM     10  H   UNK A   0      52.842  16.021  -4.118  0.00  0.00     0.000 HD
ENDROOT
BRANCH   5  11
ATOM     11  C   UNK A   0      49.039  16.711  -7.599  0.00  0.00    -0.255 C 
BRANCH  11  12
ATOM     12  C   UNK A   0      49.706  17.353  -8.825  0.00  0.00    -0.293 C 
ATOM     13  N   ALA A   1      49.598  18.665  -8.916  0.00  0.00    -0.312 N 
ATOM     14  H   ALA A   1      49.149  19.141  -8.162  0.00  0.00     0.000 HD
ATOM     15  O   UNK A   0      50.244  16.666  -9.700  0.00  0.00    -0.170 OA
BRANCH  13  16
ATOM     16  CA  ALA A   1      50.090  19.485 -10.042  0.00  0.00    -0.306 C 
ATOM     17  CB  ALA A   1      49.098  19.372 -11.185  0.00  0.00    -0.407 C 
BRANCH  16  18
ATOM     18  C   ALA A   1      50.260  20.963  -9.609  0.00  0.00    -0.415 C 
ATOM     19  OXT ALA A   1      50.818  21.891 -10.302  0.00  0.00    -0.504 OA
ATOM     20  O   ALA A   1      49.933  21.330  -8.461  0.00  0.00    -0.756 OA
ENDBRANCH  16  18
ENDBRANCH  13  16
ENDBRANCH  11  12
BRANCH  11  21
ATOM     21  C   UNK A   0      47.687  17.417  -7.431  0.00  0.00    -0.184 C 
BRANCH  21  22
ATOM     22  C   UNK A   0      46.536  16.669  -8.061  0.00  0.00    -0.417 C 
ATOM     23  C   UNK A   0      46.143  17.319  -9.401  0.00  0.00    -0.346 C 
ATOM     24  C   UNK A   0      47.154  15.293  -8.186  0.00  0.00    -0.163 C 
ENDBRANCH  21  22
ENDBRANCH  11  21
ENDBRANCH   5  11
BRANCH   7  25
ATOM     25  O   UNK A   0      52.393  14.312  -5.571  0.00  0.00    -0.197 OA
BRANCH  25  26
ATOM     26  C   UNK A   0      51.953  13.446  -4.512  0.00  0.00     0.105 C 
BRANCH  26  27
ATOM     27  C   UNK A   0      53.236  12.844  -4.061  0.00  0.00    -0.170 A 
ATOM     28  C   UNK A   0      54.349  12.468  -4.820  0.00  0.00    -0.335 A 
ATOM     29  C   UNK A   0      55.545  11.948  -4.260  0.00  0.00    -0.290 A 
ATOM     30  C   UNK A   0      55.722  11.811  -2.949  0.00  0.00    -0.351 A 
ATOM     31  C   UNK A   0      54.614  12.176  -2.297  0.00  0.00    -0.305 A 
ATOM     32  C   UNK A   0      53.382  12.702  -2.736  0.00  0.00    -0.277 A 
ENDBRANCH  26  27
ENDBRANCH  25  26
ENDBRANCH   7  25
BRANCH   1  33
ATOM     33  C   UNK A   0      53.083  18.548  -4.627  0.00  0.00    -0.462 C 
BRANCH  33  34
ATOM     34  C   UNK A   0      53.310  18.674  -3.135  0.00  0.00    -0.430 A 
ATOM     35  C   UNK A   0      52.281  18.528  -2.239  0.00  0.00    -0.369 A 
ATOM     36  C   UNK A   0      52.555  18.672  -0.870  0.00  0.00    -0.587 A 
ATOM     37  C   UNK A   0      53.876  18.993  -0.440  0.00  0.00    -0.658 A 
ATOM     38  C   UNK A   0      54.898  19.173  -1.363  0.00  0.00    -0.675 A 
ATOM     39  C   UNK A   0      54.605  19.014  -2.723  0.00  0.00    -0.368 A 
ENDBRANCH  33  34
ENDBRANCH   1  33
TORSDOF 11
ENDMDL
MODEL        5
REMARK VINA RESULT:  -6.470   0.000  0.000 
REMARK 921   NORMALIZED FREE ENERGY PREDICTED BY IDOCK:   -6.47 KCAL/MOL
REMARK 922        TOTAL FREE ENERGY PREDICTED BY IDOCK:  -12.33 KCAL/MOL
REMARK 923 INTER-LIGAND FREE ENERGY PREDICTED BY IDOCK:  -10.82 KCAL/MOL
REMARK 924 INTRA-LIGAND FREE ENERGY PREDICTED BY IDOCK:   -1.51 KCAL/MOL
REMARK 927      BINDING AFFINITY PREDICTED BY RF-SCORE:    6.33 PKD
ROOT
ATOM      1  C   UNK A   0      50.299  13.587  -7.546  0.00  0.00    -0.214 C 
ATOM      2  P   UNK A   0      49.743  14.305  -8.926  0.00  0.00    -0.179 P 
ATOM      3  O   UNK A   0      48.892  13.315  -9.826  0.00  0.00    -0.141 OA
ATOM      4  O   UNK A   0      50.905  14.998  -9.735  0.00  0.00    -0.275 OA
ATOM      5  N   UNK A   0      48.507  15.551  -8.203  0.00  0.00    -0.181 N 
ATOM      6  O   UNK A   0      47.577  14.369  -8.077  0.00  0.00    -0.155 OA
ATOM      7  C   UNK A   0      47.862  13.547  -7.141  0.00  0.00    -0.137 C 
ATOM      8  H   UNK A   0      48.344  15.636  -7.220  0.00  0.00     0.000 HD
ATOM      9  N   UNK A   0      49.091  13.119  -6.812  0.00  0.00    -0.375 NA
ATOM     10  H   UNK A   0      49.197  12.471  -6.058  0.00  0.00     0.000 HD
ENDROOT
BRANCH   5  11
ATOM     11  C   UNK A   0      47.809  16.384  -9.193  0.00  0.00    -0.164 C 
BRANCH  11  12
ATOM     12  C   UNK A   0      48.697  17.372  -9.963  0.00  0.00    -0.220 C 
ATOM     13  N   ALA A   1      49.183  18.377  -9.260  0.00  0.00    -0.279 N 
ATOM     14  H   ALA A   1      48.988  18.387  -8.280  0.00  0.00     0.000 HD
ATOM     15  O   UNK A   0      48.878  17.262 -11.182  0.00  0.00    -0.215 OA
BRANCH  13  16
ATOM     16  CA  ALA A   1      49.992  19.487  -9.803  0.00  0.00    -0.369 C 
ATOM     17  CB  ALA A   1      49.073  20.415 -10.575  0.00  0.00    -0.319 C 
BRANCH  16  18
ATOM     18  C   ALA A   1      50.709  20.251  -8.662  0.00  0.00    -0.474 C 
ATOM     19  OXT ALA A   1      51.727  19.831  -7.999  0.00  0.00    -0.612 OA
ATOM     20  O   ALA A   1      50.253  21.332  -8.237  0.00  0.00    -0.753 OA
ENDBRANCH  16  18
ENDBRANCH  13  16
ENDBRANCH  11  12
BRANCH  11  21
ATOM     21  C   UNK A   0      46.681  17.218  -8.571  0.00  0.00    -0.437 C 
BRANCH  21  22
ATOM     22  C   UNK A   0      45.415  17.227  -9.395  0.00  0.00    -0.377 C 
ATOM     23  C   UNK A   0      45.428  16.070 -10.412  0.00  0.00    -0.140 C 
ATOM     24  C   UNK A   0      44.386  17.085  -8.295  0.00  0.00    -0.647 C 
ENDBRANCH  21  22
ENDBRANCH  11  21
ENDBRANCH   5  11
BRANCH   7  25
ATOM     25  O   UNK A   0      46.965  12.896  -6.321  0.00  0.00    -0.191 OA
BRANCH  25  26
ATOM     26  C   UNK A   0      47.024  11.471  -6.148  0.00  0.00    -0.181 C 
BRANCH  26  27
ATOM     27  C   UNK A   0      46.927  11.342  -4.669  0.00  0.00    -0.252 A 
ATOM     28  C   UNK A   0      47.942  11.101  -3.736  0.00  0.00    -0.219 A 
ATOM     29  C   UNK A   0      47.727  11.051  -2.334  0.00  0.00    -0.348 A 
ATOM     30  C   UNK A   0      46.537  11.271  -1.784  0.00  0.00    -0.450 A 
ATOM     31  C   UNK A   0      45.622  11.477  -2.736  0.00  0.00    -0.362 A 
ATOM     32  C   UNK A   0      45.713  11.551  -4.141  0.00  0.00    -0.244 A 
ENDBRANCH  26  27
ENDBRANCH  25  26
ENDBRANCH   7  25
BRANCH   1  33
ATOM     33  C   UNK A   0      51.035  12.332  -7.875  0.00  0.00    -0.167 C 
BRANCH  33  34
ATOM     34  C   UNK A   0      52.205  12.269  -6.915  0.00  0.00    -0.245 A 
ATOM     35  C   UNK A   0      53.110  11.239  -6.953  0.00  0.00    -0.241 A 
ATOM     36  C   UNK A   0      54.162  11.232  -6.025  0.00  0.00    -0.328 A 
ATOM     37  C   UNK A   0      54.256  12.268  -5.051  0.00  0.00    -0.327 A 
ATOM     38  C   UNK A   0      53.311  13.285  -5.003  0.00  0.00    -0.365 A 
ATOM     39  C   UNK A   0      52.275  13.278  -5.945  0.00  0.00    -0.241 A 
ENDBRANCH  33  34
ENDBRANCH   1  33
TORSDOF 11
ENDMDL
MODEL        6
REMARK VINA RESULT:  -5.730   0.000  0.000 
REMARK 921   NORMALIZED FREE ENERGY PREDICTED BY IDOCK:   -5.73 KCAL/MOL
REMARK 922        TOTAL FREE ENERGY PREDICTED BY IDOCK:  -11.12 KCAL/MOL
REMARK 923 INTER-LIGAND FREE ENERGY PREDICTED BY IDOCK:   -8.88 KCAL/MOL
REMARK 924 INTRA-LIGAND FREE ENERGY PREDICTED BY IDOCK:   -2.25 KCAL/MOL
REMARK 927      BINDING AFFINITY PREDICTED BY RF-SCORE:    6.24 PKD
ROOT
ATOM      1  C   UNK A   0      46.496  15.629  -9.533  0.00  0.00    -0.138 C 
ATOM      2  P   UNK A   0      46.530  17.241  -9.895  0.00  0.00    -0.191 P 
ATOM      3  O   UNK A   0      47.688  18.011  -9.134  0.00  0.00    -0.239 OA
ATOM      4  O   UNK A   0      45.122  17.917  -9.682  0.00  0.00    -0.237 OA
ATOM      5  N   UNK A   0      47.048  17.182 -11.720  0.00  0.00    -0.194 N 
ATOM      6  O   UNK A   0      48.443  16.960 -11.189  0.00  0.00    -0.183 OA
ATOM      7  C   UNK A   0      48.665  15.797 -10.706  0.00  0.00    -0.160 C 
ATOM      8  H   UNK A   0      47.220  16.323 -12.201  0.00  0.00     0.000 HD
ATOM      9  N   UNK A   0      47.829  15.093  -9.927  0.00  0.00    -0.140 NA
ATOM     10  H   UNK A   0      48.108  14.190  -9.603  0.00  0.00     0.000 HD
ENDROOT
BRANCH   5  11
ATOM     11  C   UNK A   0      47.177  18.493 -12.374  0.00  0.00    -0.221 C 
BRANCH  11  12
ATOM     12  C   UNK A   0      48.568  19.139 -12.281  0.00  0.00    -0.289 C 
ATOM     13  N   ALA A   1      48.832  19.773 -11.154  0.00  0.00    -0.278 N 
ATOM     14  H   ALA A   1      48.141  19.734 -10.433  0.00  0.00     0.000 HD
ATOM     15  O   UNK A   0      49.352  19.121 -13.236  0.00  0.00    -0.270 OA
BRANCH  13  16
ATOM     16  CA  ALA A   1      50.067  20.532 -10.871  0.00  0.00    -0.415 C 
ATOM     17  CB  ALA A   1      49.860  21.966 -11.319  0.00  0.00    -0.300 C 
BRANCH  16  18
ATOM     18  C   ALA A   1      50.412  20.474  -9.362  0.00  0.00    -0.414 C 
ATOM     19  OXT ALA A   1      50.862  19.448  -8.732  0.00  0.00    -0.508 OA
ATOM     20  O   ALA A   1      50.167  21.445  -8.617  0.00  0.00    -0.749 OA
ENDBRANCH  16  18
ENDBRANCH  13  16
ENDBRANCH  11  12
BRANCH  11  21
ATOM     21  C   UNK A   0      46.188  19.527 -11.822  0.00  0.00    -0.260 C 
BRANCH  21  22
ATOM     22  C   UNK A   0      44.970  19.720 -12.696  0.00  0.00    -0.436 C 
ATOM     23  C   UNK A   0      44.060  18.480 -12.630  0.00  0.00    -0.178 C 
ATOM     24  C   UNK A   0      44.386  20.963 -12.060  0.00  0.00    -0.521 C 
ENDBRANCH  21  22
ENDBRANCH  11  21
ENDBRANCH   5  11
BRANCH   7  25
ATOM     25  O   UNK A   0      49.822  15.061 -10.842  0.00  0.00    -0.235 OA
BRANCH  25  26
ATOM     26  C   UNK A   0      50.828  15.073  -9.816  0.00  0.00    -0.224 C 
BRANCH  26  27
ATOM     27  C   UNK A   0      50.720  13.694  -9.270  0.00  0.00    -0.237 A 
ATOM     28  C   UNK A   0      50.476  12.494  -9.947  0.00  0.00    -0.185 A 
ATOM     29  C   UNK A   0      50.447  11.224  -9.313  0.00  0.00    -0.174 A 
ATOM     30  C   UNK A   0      50.690  11.066  -8.016  0.00  0.00    -0.163 A 
ATOM     31  C   UNK A   0      50.897  12.253  -7.439  0.00  0.00    -0.150 A 
ATOM     32  C   UNK A   0      50.952  13.564  -7.956  0.00  0.00    -0.184 A 
ENDBRANCH  26  27
ENDBRANCH  25  26
ENDBRANCH   7  25
BRANCH   1  33
ATOM     33  C   UNK A   0      46.446  15.431  -8.055  0.00  0.00    -0.193 C 
BRANCH  33  34
ATOM     34  C   UNK A   0      46.602  13.941  -7.828  0.00  0.00    -0.164 A 
ATOM     35  C   UNK A   0      45.958  13.024  -8.620  0.00  0.00    -0.130 A 
ATOM     36  C   UNK A   0      46.134  11.659  -8.347  0.00  0.00    -0.070 A 
ATOM     37  C   UNK A   0      46.944  11.253  -7.247  0.00  0.00    -0.211 A 
ATOM     38  C   UNK A   0      47.559  12.195  -6.433  0.00  0.00    -0.158 A 
ATOM     39  C   UNK A   0      47.379  13.552  -6.729  0.00  0.00    -0.080 A 
ENDBRANCH  33  34
ENDBRANCH   1  33
TORSDOF 11
ENDMDL
MODEL        7
REMARK VINA RESULT:  -5.400   0.000  0.000 
REMARK 921   NORMALIZED FREE ENERGY PREDICTED BY IDOCK:   -5.40 KCAL/MOL
REMARK 922        TOTAL FREE ENERGY PREDICTED BY IDOCK:  -10.57 KCAL/MOL
REMARK 923 INTER-LIGAND FREE ENERGY PREDICTED BY IDOCK:  -10.91 KCAL/MOL
REMARK 924 INTRA-LIGAND FREE ENERGY PREDICTED BY IDOCK:    0.34 KCAL/MOL
REMARK 927      BINDING AFFINITY PREDICTED BY RF-SCORE:    7.32 PKD
ROOT
ATOM      1  C   UNK A   0      52.012  18.058  -4.498  0.00  0.00     0.009 C 
ATOM      2  P   UNK A   0      51.486  18.208  -6.057  0.00  0.00    -0.347 P 
ATOM      3  O   UNK A   0      52.634  17.933  -7.115  0.00  0.00     0.161 OA
ATOM      4  O   UNK A   0      50.768  19.590  -6.301  0.00  0.00    -0.311 OA
ATOM      5  N   UNK A   0      50.298  16.733  -6.172  0.00  0.00    -0.414 N 
ATOM      6  O   UNK A   0      51.545  15.901  -6.350  0.00  0.00    -0.195 OA
ATOM      7  C   UNK A   0      52.243  15.730  -5.293  0.00  0.00     0.264 C 
ATOM      8  H   UNK A   0      50.136  16.114  -5.404  0.00  0.00     0.000 HD
ATOM      9  N   UNK A   0      52.519  16.664  -4.370  0.00  0.00    -0.655 NA
ATOM     10  H   UNK A   0      53.079  16.418  -3.579  0.00  0.00     0.000 HD
ENDROOT
BRANCH   5  11
ATOM     11  C   UNK A   0      49.634  16.567  -7.473  0.00  0.00    -0.273 C 
BRANCH  11  12
ATOM     12  C   UNK A   0      49.767  15.173  -8.106  0.00  0.00    -0.201 C 
ATOM     13  N   ALA A   1      50.472  15.112  -9.219  0.00  0.00    -0.249 N 
ATOM     14  H   ALA A   1      50.910  15.955  -9.531  0.00  0.00     0.000 HD
ATOM     15  O   UNK A   0      49.186  14.191  -7.630  0.00  0.00    -0.202 OA
BRANCH  13  16
ATOM     16  CA  ALA A   1      50.668  13.900 -10.040  0.00  0.00    -0.219 C 
ATOM     17  CB  ALA A   1      51.035  12.752  -9.119  0.00  0.00    -0.208 C 
BRANCH  16  18
ATOM     18  C   ALA A   1      49.385  13.569 -10.843  0.00  0.00    -0.183 C 
ATOM     19  OXT ALA A   1      49.262  12.628 -11.710  0.00  0.00    -0.160 OA
ATOM     20  O   ALA A   1      48.375  14.299 -10.756  0.00  0.00    -0.131 OA
ENDBRANCH  16  18
ENDBRANCH  13  16
ENDBRANCH  11  12
BRANCH  11  21
ATOM     21  C   UNK A   0      50.140  17.562  -8.525  0.00  0.00    -0.395 C 
BRANCH  21  22
ATOM     22  C   UNK A   0      49.057  18.463  -9.071  0.00  0.00    -0.373 C 
ATOM     23  C   UNK A   0      49.290  18.737 -10.568  0.00  0.00    -0.407 C 
ATOM     24  C   UNK A   0      47.837  17.619  -8.768  0.00  0.00    -0.370 C 
ENDBRANCH  21  22
ENDBRANCH  11  21
ENDBRANCH   5  11
BRANCH   7  25
ATOM     25  O   UNK A   0      52.894  14.573  -4.919  0.00  0.00    -0.307 OA
BRANCH  25  26
ATOM     26  C   UNK A   0      52.217  13.306  -4.944  0.00  0.00    -0.178 C 
BRANCH  26  27
ATOM     27  C   UNK A   0      52.532  12.769  -3.593  0.00  0.00    -0.179 A 
ATOM     28  C   UNK A   0      53.312  11.661  -3.245  0.00  0.00    -0.164 A 
ATOM     29  C   UNK A   0      53.582  11.278  -1.905  0.00  0.00    -0.233 A 
ATOM     30  C   UNK A   0      53.143  11.972  -0.859  0.00  0.00    -0.404 A 
ATOM     31  C   UNK A   0      52.398  13.001  -1.273  0.00  0.00    -0.454 A 
ATOM     32  C   UNK A   0      52.063  13.478  -2.557  0.00  0.00    -0.291 A 
ENDBRANCH  26  27
ENDBRANCH  25  26
ENDBRANCH   7  25
BRANCH   1  33
ATOM     33  C   UNK A   0      53.219  18.908  -4.274  0.00  0.00    -0.393 C 
BRANCH  33  34
ATOM     34  C   UNK A   0      53.428  18.949  -2.774  0.00  0.00    -0.391 A 
ATOM     35  C   UNK A   0      54.462  19.655  -2.214  0.00  0.00    -0.648 A 
ATOM     36  C   UNK A   0      54.609  19.640  -0.819  0.00  0.00    -0.735 A 
ATOM     37  C   UNK A   0      53.710  18.877  -0.018  0.00  0.00    -0.633 A 
ATOM     38  C   UNK A   0      52.690  18.138  -0.604  0.00  0.00    -0.599 A 
ATOM     39  C   UNK A   0      52.555  18.176  -1.997  0.00  0.00    -0.436 A 
ENDBRANCH  33  34
ENDBRANCH   1  33
TORSDOF 11
ENDMDL
MODEL        8
REMARK VINA RESULT:  -5.380   0.000  0.000 
REMARK 921   NORMALIZED FREE ENERGY PREDICTED BY IDOCK:   -5.38 KCAL/MOL
REMARK 922        TOTAL FREE ENERGY PREDICTED BY IDOCK:  -10.54 KCAL/MOL
REMARK 923 INTER-LIGAND FREE ENERGY PREDICTED BY IDOCK:   -9.57 KCAL/MOL
REMARK 924 INTRA-LIGAND FREE ENERGY PREDICTED BY IDOCK:   -0.98 KCAL/MOL
REMARK 927      BINDING AFFINITY PREDICTED BY RF-SCORE:    7.19 PKD
ROOT
ATOM      1  C   UNK A   0      50.813  17.859  -6.078  0.00  0.00    -0.221 C 
ATOM      2  P   UNK A   0      50.346  18.398  -7.569  0.00  0.00    -0.350 P 
ATOM      3  O   UNK A   0      51.280  17.857  -8.731  0.00  0.00    -0.085 OA
ATOM      4  O   UNK A   0      50.197  19.967  -7.603  0.00  0.00    -0.252 OA
ATOM      5  N   UNK A   0      48.687  17.498  -7.766  0.00  0.00    -0.254 N 
ATOM      6  O   UNK A   0      49.523  16.294  -8.124  0.00  0.00    -0.207 OA
ATOM      7  C   UNK A   0      50.129  15.739  -7.146  0.00  0.00    -0.256 C 
ATOM      8  H   UNK A   0      48.321  16.888  -7.063  0.00  0.00     0.000 HD
ATOM      9  N   UNK A   0      50.759  16.373  -6.145  0.00  0.00    -0.710 NA
ATOM     10  H   UNK A   0      51.203  15.835  -5.429  0.00  0.00     0.000 HD
ENDROOT
BRANCH   5  11
ATOM     11  C   UNK A   0      47.979  17.763  -9.026  0.00  0.00    -0.248 C 
BRANCH  11  12
ATOM     12  C   UNK A   0      48.178  19.171  -9.608  0.00  0.00    -0.234 C 
ATOM     13  N   ALA A   1      49.150  19.295 -10.492  0.00  0.00    -0.257 N 
ATOM     14  H   ALA A   1      49.637  18.463 -10.757  0.00  0.00     0.000 HD
ATOM     15  O   UNK A   0      47.511  20.133  -9.212  0.00  0.00     0.329 OA
BRANCH  13  16
ATOM     16  CA  ALA A   1      49.574  20.561 -11.123  0.00  0.00    -0.336 C 
ATOM     17  CB  ALA A   1      50.953  20.918 -10.599  0.00  0.00    -0.667 C 
BRANCH  16  18
ATOM     18  C   ALA A   1      49.593  20.425 -12.666  0.00  0.00    -0.386 C 
ATOM     19  OXT ALA A   1      50.417  21.006 -13.462  0.00  0.00    -0.420 OA
ATOM     20  O   ALA A   1      48.699  19.785 -13.258  0.00  0.00    -0.285 OA
ENDBRANCH  16  18
ENDBRANCH  13  16
ENDBRANCH  11  12
BRANCH  11  21
ATOM     21  C   UNK A   0      46.463  17.563  -8.905  0.00  0.00    -0.472 C 
BRANCH  21  22
ATOM     22  C   UNK A   0      45.753  17.521 -10.238  0.00  0.00    -0.253 C 
ATOM     23  C   UNK A   0      46.146  16.251 -11.015  0.00  0.00    -0.156 C 
ATOM     24  C   UNK A   0      44.314  17.552  -9.769  0.00  0.00    -0.389 C 
ENDBRANCH  21  22
ENDBRANCH  11  21
ENDBRANCH   5  11
BRANCH   7  25
ATOM     25  O   UNK A   0      50.304  14.385  -6.952  0.00  0.00    -0.420 OA
BRANCH  25  26
ATOM     26  C   UNK A   0      49.227  13.462  -7.185  0.00  0.00    -0.025 C 
BRANCH  26  27
ATOM     27  C   UNK A   0      49.548  12.960  -8.547  0.00  0.00    -0.158 A 
ATOM     28  C   UNK A   0      49.243  13.525  -9.790  0.00  0.00    -0.159 A 
ATOM     29  C   UNK A   0      49.655  12.969 -11.030  0.00  0.00    -0.115 A 
ATOM     30  C   UNK A   0      50.405  11.875 -11.110  0.00  0.00    -0.199 A 
ATOM     31  C   UNK A   0      50.640  11.389  -9.888  0.00  0.00    -0.203 A 
ATOM     32  C   UNK A   0      50.291  11.845  -8.600  0.00  0.00    -0.159 A 
ENDBRANCH  26  27
ENDBRANCH  25  26
ENDBRANCH   7  25
BRANCH   1  33
ATOM     33  C   UNK A   0      52.256  18.162  -5.847  0.00  0.00    -0.255 C 
BRANCH  33  34
ATOM     34  C   UNK A   0      52.543  17.758  -4.415  0.00  0.00    -0.209 A 
ATOM     35  C   UNK A   0      52.344  18.626  -3.372  0.00  0.00    -0.151 A 
ATOM     36  C   UNK A   0      52.644  18.195  -2.071  0.00  0.00    -0.436 A 
ATOM     37  C   UNK A   0      53.171  16.888  -1.860  0.00  0.00    -0.360 A 
ATOM     38  C   UNK A   0      53.400  16.034  -2.931  0.00  0.00    -0.377 A 
ATOM     39  C   UNK A   0      53.084  16.481  -4.220  0.00  0.00    -0.232 A 
ENDBRANCH  33  34
ENDBRANCH   1  33
TORSDOF 11
ENDMDL
MODEL        9
REMARK VINA RESULT:  -5.290   0.000  0.000 
REMARK 921   NORMALIZED FREE ENERGY PREDICTED BY IDOCK:   -5.29 KCAL/MOL
REMARK 922        TOTAL FREE ENERGY PREDICTED BY IDOCK:  -10.40 KCAL/MOL
REMARK 923 INTER-LIGAND FREE ENERGY PREDICTED BY IDOCK:   -8.59 KCAL/MOL
REMARK 924 INTRA-LIGAND FREE ENERGY PREDICTED BY IDOCK:   -1.81 KCAL/MOL
REMARK 927      BINDING AFFINITY PREDICTED BY RF-SCORE:    6.30 PKD
ROOT
ATOM      1  C   UNK A   0      49.141  16.090  -9.701  0.00  0.00    -0.197 C 
ATOM      2  P   UNK A   0      48.615  16.935 -11.020  0.00  0.00    -0.238 P 
ATOM      3  O   UNK A   0      48.171  15.988 -12.211  0.00  0.00    -0.151 OA
ATOM      4  O   UNK A   0      49.664  18.019 -11.476  0.00  0.00     0.173 OA
ATOM      5  N   UNK A   0      47.019  17.701 -10.335  0.00  0.00    -0.196 N 
ATOM      6  O   UNK A   0      46.408  16.343 -10.579  0.00  0.00    -0.155 OA
ATOM      7  C   UNK A   0      46.760  15.430  -9.758  0.00  0.00    -0.133 C 
ATOM      8  H   UNK A   0      46.707  17.543  -9.398  0.00  0.00     0.000 HD
ATOM      9  N   UNK A   0      48.000  15.226  -9.287  0.00  0.00    -0.157 NA
ATOM     10  H   UNK A   0      48.162  14.476  -8.646  0.00  0.00     0.000 HD
ENDROOT
BRANCH   5  11
ATOM     11  C   UNK A   0      46.275  18.544 -11.282  0.00  0.00    -0.210 C 
BRANCH  11  12
ATOM     12  C   UNK A   0      47.141  19.364 -12.251  0.00  0.00    -0.244 C 
ATOM     13  N   ALA A   1      47.684  20.457 -11.751  0.00  0.00    -0.329 N 
ATOM     14  H   ALA A   1      47.543  20.636 -10.778  0.00  0.00     0.000 HD
ATOM     15  O   UNK A   0      47.253  19.047 -13.441  0.00  0.00    -0.260 OA
BRANCH  13  16
ATOM     16  CA  ALA A   1      48.485  21.437 -12.513  0.00  0.00    -0.348 C 
ATOM     17  CB  ALA A   1      47.719  22.745 -12.564  0.00  0.00    -0.322 C 
BRANCH  16  18
ATOM     18  C   ALA A   1      49.872  21.641 -11.853  0.00  0.00    -0.317 C 
ATOM     19  OXT ALA A   1      50.209  22.624 -11.097  0.00  0.00    -0.408 OA
ATOM     20  O   ALA A   1      50.819  20.869 -12.113  0.00  0.00    -0.470 OA
ENDBRANCH  16  18
ENDBRANCH  13  16
ENDBRANCH  11  12
BRANCH  11  21
ATOM     21  C   UNK A   0      45.353  19.549 -10.579  0.00  0.00    -0.463 C 
BRANCH  21  22
ATOM     22  C   UNK A   0      44.037  19.756 -11.290  0.00  0.00    -0.501 C 
ATOM     23  C   UNK A   0      44.137  20.939 -12.272  0.00  0.00    -0.546 C 
ATOM     24  C   UNK A   0      43.879  18.403 -11.950  0.00  0.00    -0.477 C 
ENDBRANCH  21  22
ENDBRANCH  11  21
ENDBRANCH   5  11
BRANCH   7  25
ATOM     25  O   UNK A   0      45.952  14.442  -9.235  0.00  0.00    -0.114 OA
BRANCH  25  26
ATOM     26  C   UNK A   0      46.367  13.066  -9.249  0.00  0.00    -0.110 C 
BRANCH  26  27
ATOM     27  C   UNK A   0      46.175  12.679  -7.826  0.00  0.00    -0.137 A 
ATOM     28  C   UNK A   0      47.134  12.496  -6.824  0.00  0.00    -0.163 A 
ATOM     29  C   UNK A   0      46.817  12.173  -5.479  0.00  0.00    -0.242 A 
ATOM     30  C   UNK A   0      45.565  12.055  -5.047  0.00  0.00    -0.268 A 
ATOM     31  C   UNK A   0      44.712  12.228  -6.061  0.00  0.00    -0.162 A 
ATOM     32  C   UNK A   0      44.903  12.550  -7.420  0.00  0.00    -0.263 A 
ENDBRANCH  26  27
ENDBRANCH  25  26
ENDBRANCH   7  25
BRANCH   1  33
ATOM     33  C   UNK A   0      50.206  15.123 -10.096  0.00  0.00    -0.301 C 
BRANCH  33  34
ATOM     34  C   UNK A   0      50.489  14.287  -8.865  0.00  0.00    -0.220 A 
ATOM     35  C   UNK A   0      50.733  14.866  -7.646  0.00  0.00    -0.181 A 
ATOM     36  C   UNK A   0      51.003  14.034  -6.548  0.00  0.00     0.023 A 
ATOM     37  C   UNK A   0      51.048  12.621  -6.722  0.00  0.00    -0.175 A 
ATOM     38  C   UNK A   0      50.834  12.052  -7.971  0.00  0.00    -0.158 A 
ATOM     39  C   UNK A   0      50.556  12.899  -9.051  0.00  0.00    -0.173 A 
ENDBRANCH  33  34
ENDBRANCH   1  33
TORSDOF 11
ENDMDL
