REMARK  Name = 4tmn_448.pdbqt
REMARK  14 active torsions:
REMARK  status: ('A' for Active; 'I' for Inactive)
REMARK    1  A    between atoms: _1  and  _55
REMARK    2  A    between atoms: _4  and  _7
REMARK    3  A    between atoms: _7  and  _8
REMARK    4  A    between atoms: _8  and  _11
REMARK    5  A    between atoms: _25  and  _27
REMARK    6  A    between atoms: _27  and  _29
REMARK    7  A    between atoms: _27  and  _42
REMARK    8  A    between atoms: _31  and  _33
REMARK    9  A    between atoms: _33  and  _35
REMARK   10  A    between atoms: _33  and  _38
REMARK   11  A    between atoms: _42  and  _45
REMARK   12  A    between atoms: _45  and  _47
REMARK   13  A    between atoms: _45  and  _51
REMARK   14  A    between atoms: _55  and  _58
REMARK                            x       y       z     vdW  Elec       q    Type
REMARK                         _______ _______ _______ _____ _____    ______ ____
ROOT
ATOM      1  C   UNK A   0      52.274  20.166  -7.495  0.00  0.00    +0.204 C 
ATOM      2  P   UNK A   0      52.683  19.868  -5.922  0.00  0.00    +0.229 P 
ATOM      3  O   UNK A   0      51.532  20.269  -4.908  0.00  0.00    -0.650 OA
ATOM      4  O   UNK A   0      54.067  20.521  -5.544  0.00  0.00    -0.650 OA
ATOM      5  N   UNK A   0      52.743  17.971  -5.926  0.00  0.00    -0.334 N 
ATOM      6  O   UNK A   0      51.238  18.046  -5.841  0.00  0.00    -0.238 OA
ATOM      7  C   UNK A   0      50.647  18.398  -6.918  0.00  0.00    +0.361 C 
ATOM      8  H   UNK A   0      52.553  17.430  -6.745  0.00  0.00    +0.164 HD
ATOM      9  N   UNK A   0      51.044  19.368  -7.756  0.00  0.00    -0.321 NA
ATOM     10  H   UNK A   0      50.501  19.560  -8.573  0.00  0.00    +0.165 HD
ENDROOT
BRANCH   5  11
ATOM     11  C   UNK A   0      53.090  17.355  -4.637  0.00  0.00    +0.178 C 
BRANCH  11  12
ATOM     12  C   UNK A   0      53.151  18.320  -3.443  0.00  0.00    +0.241 C 
ATOM     13  N   ALA A   1      52.540  17.916  -2.346  0.00  0.00    -0.345 N 
ATOM     14  H   ALA A   1      52.140  17.000  -2.355  0.00  0.00    +0.163 HD
ATOM     15  O   UNK A   0      53.681  19.433  -3.540  0.00  0.00    -0.271 OA
BRANCH  13  16
ATOM     16  CA  ALA A   1      52.401  18.706  -1.106  0.00  0.00    +0.182 C 
ATOM     17  CB  ALA A   1      51.132  19.532  -1.205  0.00  0.00    +0.042 C 
BRANCH  16  18
ATOM     18  C   ALA A   1      52.354  17.777   0.133  0.00  0.00    +0.196 C 
ATOM     19  OXT ALA A   1      52.350  18.159   1.360  0.00  0.00    -0.646 OA
ATOM     20  O   ALA A   1      52.419  16.537   0.000  0.00  0.00    -0.646 OA
ENDBRANCH  16  18
ENDBRANCH  13  16
ENDBRANCH  11  12
BRANCH  11  21
ATOM     21  C   UNK A   0      54.444  16.635  -4.673  0.00  0.00    +0.039 C 
BRANCH  21  22
ATOM     22  C   UNK A   0      54.827  16.008  -3.353  0.00  0.00    -0.021 C 
ATOM     23  C   UNK A   0      53.776  14.965  -2.929  0.00  0.00    +0.011 C 
ATOM     24  C   UNK A   0      56.176  15.428  -3.720  0.00  0.00    +0.011 C 
ENDBRANCH  21  22
ENDBRANCH  11  21
ENDBRANCH   5  11
BRANCH   7  25
ATOM     25  O   UNK A   0      49.460  17.892  -7.404  0.00  0.00    -0.299 OA
BRANCH  25  26
ATOM     26  C   UNK A   0      48.751  16.864  -6.693  0.00  0.00    +0.218 C 
BRANCH  26  27
ATOM     27  C   UNK A   0      47.571  16.648  -7.572  0.00  0.00    -0.034 A 
ATOM     28  C   UNK A   0      46.323  17.280  -7.544  0.00  0.00    +0.009 A 
ATOM     29  C   UNK A   0      45.287  17.019  -8.479  0.00  0.00    +0.001 A 
ATOM     30  C   UNK A   0      45.434  16.172  -9.493  0.00  0.00    +0.000 A 
ATOM     31  C   UNK A   0      46.641  15.601  -9.442  0.00  0.00    +0.001 A 
ATOM     32  C   UNK A   0      47.740  15.776  -8.576  0.00  0.00    +0.009 A 
ENDBRANCH  26  27
ENDBRANCH  25  26
ENDBRANCH   7  25
BRANCH   1  33
ATOM     33  C   UNK A   0      51.832  21.582  -7.656  0.00  0.00    +0.077 C 
BRANCH  33  34
ATOM     34  C   UNK A   0      51.641  21.793  -9.144  0.00  0.00    -0.056 A 
ATOM     35  C   UNK A   0      50.585  22.518  -9.635  0.00  0.00    +0.007 A 
ATOM     36  C   UNK A   0      50.457  22.663 -11.025  0.00  0.00    +0.001 A 
ATOM     37  C   UNK A   0      51.398  22.038 -11.894  0.00  0.00    +0.000 A 
ATOM     38  C   UNK A   0      52.441  21.277 -11.381  0.00  0.00    +0.001 A 
ATOM     39  C   UNK A   0      52.556  21.154  -9.991  0.00  0.00    +0.007 A 
ENDBRANCH  33  34
ENDBRANCH   1  33
TORSDOF 11
