REMARK  1 active torsions:
REMARK  status: ('A' for Active; 'I' for Inactive)
REMARK    1  A    between atoms: C14_17  and  C15_18 
ROOT
ATOM      1  C1  HUB d           1.270  65.374  69.818  0.00  0.00     0.245 A 
ATOM      2  O1  HUB d           1.003  64.395  70.519  0.00  0.00    -0.268 OA
ATOM      3  N1  HUB d           1.164  65.284  68.432  0.00  0.00    -0.327 N 
ATOM      4  C2  HUB d           1.701  66.653  70.354  0.00  0.00    -0.017 A 
ATOM      5  C3  HUB d           1.979  67.700  69.512  0.00  0.00    -0.067 A 
ATOM      6  C4  HUB d           1.862  67.604  68.078  0.00  0.00     0.001 A 
ATOM      7  C5  HUB d           1.454  66.333  67.543  0.00  0.00     0.021 A 
ATOM      8  C6  HUB d           1.299  66.049  66.062  0.00  0.00    -0.019 C 
ATOM      9  C7  HUB d           1.754  67.273  65.122  0.00  0.00    -0.026 C 
ATOM     10  C8  HUB d           3.285  67.243  64.880  0.00  0.00    -0.096 C 
ATOM     11  C9  HUB d          -0.437  70.106  66.681  0.00  0.00    -0.042 C 
ATOM     12  C10 HUB d          -0.105  68.755  66.025  0.00  0.00    -0.057 C 
ATOM     13  C11 HUB d           1.407  68.637  65.765  0.00  0.00    -0.010 C 
ATOM     14  C12 HUB d           2.192  68.838  67.098  0.00  0.00     0.162 C 
ATOM     15  N2  HUB d           1.825  70.159  67.733  0.00  0.00    -0.061 N 
ATOM     16  C13 HUB d           3.732  68.817  66.832  0.00  0.00    -0.009 C 
ATOM     17  C14 HUB d           4.182  67.950  65.662  0.00  0.00    -0.084 C 
ATOM     18  C90 HUB d           0.292  70.304  68.002  0.00  0.00     0.083 C 
ATOM     19  H1  HUB d           0.862  64.413  68.044  0.00  0.00     0.169 HD
ATOM     20  H2  HUB d           1.805  66.783  71.430  0.00  0.00     0.092 H 
ATOM     21  H3  HUB d           2.302  68.645  69.946  0.00  0.00     0.084 H 
ATOM     22  H4  HUB d           0.241  65.829  65.859  0.00  0.00     0.043 H 
ATOM     23  H5  HUB d           1.911  65.171  65.810  0.00  0.00     0.043 H 
ATOM     24  H6  HUB d           1.232  67.185  64.158  0.00  0.00     0.047 H 
ATOM     25  H7  HUB d           3.672  66.639  64.060  0.00  0.00     0.077 H 
ATOM     26  H8  HUB d          -1.520  70.154  66.865  0.00  0.00     0.035 H 
ATOM     27  H9  HUB d          -0.146  70.913  65.993  0.00  0.00     0.035 H 
ATOM     28  H10 HUB d          -0.423  67.941  66.694  0.00  0.00     0.033 H 
ATOM     29  H11 HUB d          -0.644  68.675  65.070  0.00  0.00     0.033 H 
ATOM     30  H12 HUB d           1.703  69.431  65.064  0.00  0.00     0.045 H 
ATOM     31  H13 HUB d           2.115  70.903  67.117  0.00  0.00     0.278 HD
ATOM     32  H14 HUB d           2.314  70.240  68.611  0.00  0.00     0.278 HD
ATOM     33  H15 HUB d           4.228  68.443  67.741  0.00  0.00     0.043 H 
ATOM     34  H16 HUB d           4.057  69.848  66.635  0.00  0.00     0.043 H 
ATOM     35  H20 HUB d          -0.034  69.543  68.726  0.00  0.00     0.075 H 
ATOM     36  H21 HUB d           0.076  71.306  68.400  0.00  0.00     0.075 H 
ENDROOT
BRANCH  17  37
ATOM     37  C15 HUB d           5.673  67.948  65.441  0.00  0.00    -0.055 C 
ATOM     38  H17 HUB d           5.916  67.299  64.587  0.00  0.00     0.033 H 
ATOM     39  H18 HUB d           6.177  67.570  66.343  0.00  0.00     0.033 H 
ATOM     40  H19 HUB d           6.015  68.973  65.231  0.00  0.00     0.033 H 
ENDBRANCH  17  37
TORSDOF 1
