REMARK  1 active torsions:
REMARK  status: ('A' for Active; 'I' for Inactive)
REMARK    1  A    between atoms: C14_17  and  C15_18 
ROOT
ATOM      1  C1  HUB d           0.480  68.408  63.278  0.00  0.00     0.245 A 
ATOM      2  O1  HUB d          -0.550  68.937  62.854  0.00  0.00    -0.268 OA
ATOM      3  N1  HUB d           1.571  68.238  62.430  0.00  0.00    -0.327 N 
ATOM      4  C2  HUB d           0.638  67.935  64.642  0.00  0.00    -0.017 A 
ATOM      5  C3  HUB d           1.815  67.357  65.044  0.00  0.00    -0.067 A 
ATOM      6  C4  HUB d           2.946  67.188  64.164  0.00  0.00     0.001 A 
ATOM      7  C5  HUB d           2.785  67.638  62.808  0.00  0.00     0.021 A 
ATOM      8  C6  HUB d           3.861  67.520  61.745  0.00  0.00    -0.019 C 
ATOM      9  C7  HUB d           5.170  66.727  62.241  0.00  0.00    -0.026 C 
ATOM     10  C8  HUB d           4.976  65.196  62.093  0.00  0.00    -0.096 C 
ATOM     11  C9  HUB d           5.984  68.808  65.445  0.00  0.00    -0.042 C 
ATOM     12  C10 HUB d           5.698  68.526  63.961  0.00  0.00    -0.057 C 
ATOM     13  C11 HUB d           5.476  67.020  63.729  0.00  0.00    -0.010 C 
ATOM     14  C12 HUB d           4.323  66.507  64.645  0.00  0.00     0.162 C 
ATOM     15  N2  HUB d           4.617  66.823  66.093  0.00  0.00    -0.061 N 
ATOM     16  C13 HUB d           4.151  64.961  64.491  0.00  0.00    -0.009 C 
ATOM     17  C14 HUB d           4.514  64.396  63.123  0.00  0.00    -0.084 C 
ATOM     18  C90 HUB d           4.852  68.347  66.352  0.00  0.00     0.083 C 
ATOM     19  H1  HUB d           1.485  68.563  61.488  0.00  0.00     0.169 HD
ATOM     20  H2  HUB d          -0.183  68.039  65.350  0.00  0.00     0.092 H 
ATOM     21  H3  HUB d           1.900  67.011  66.073  0.00  0.00     0.084 H 
ATOM     22  H4  HUB d           4.162  68.533  61.441  0.00  0.00     0.043 H 
ATOM     23  H5  HUB d           3.439  66.987  60.880  0.00  0.00     0.043 H 
ATOM     24  H6  HUB d           6.025  67.047  61.627  0.00  0.00     0.047 H 
ATOM     25  H7  HUB d           5.215  64.730  61.138  0.00  0.00     0.077 H 
ATOM     26  H8  HUB d           6.124  69.890  65.579  0.00  0.00     0.035 H 
ATOM     27  H9  HUB d           6.904  68.280  65.734  0.00  0.00     0.035 H 
ATOM     28  H10 HUB d           4.796  69.076  63.655  0.00  0.00     0.033 H 
ATOM     29  H11 HUB d           6.554  68.862  63.357  0.00  0.00     0.033 H 
ATOM     30  H12 HUB d           6.399  66.487  64.001  0.00  0.00     0.045 H 
ATOM     31  H13 HUB d           5.445  66.319  66.370  0.00  0.00     0.278 HD
ATOM     32  H14 HUB d           3.836  66.519  66.653  0.00  0.00     0.278 HD
ATOM     33  H15 HUB d           3.098  64.715  64.691  0.00  0.00     0.043 H 
ATOM     34  H16 HUB d           4.790  64.472  65.240  0.00  0.00     0.043 H 
ATOM     35  H20 HUB d           3.935  68.910  66.121  0.00  0.00     0.075 H 
ATOM     36  H21 HUB d           5.127  68.509  67.404  0.00  0.00     0.075 H 
ENDROOT
BRANCH  17  37
ATOM     37  C15 HUB d           4.328  62.904  63.010  0.00  0.00    -0.055 C 
ATOM     38  H17 HUB d           4.605  62.576  61.997  0.00  0.00     0.033 H 
ATOM     39  H18 HUB d           3.275  62.649  63.203  0.00  0.00     0.033 H 
ATOM     40  H19 HUB d           4.970  62.397  63.747  0.00  0.00     0.033 H 
ENDBRANCH  17  37
TORSDOF 1
