@<TRIPOS>MOLECULE
decoys/1gpn_404.pdbqt
 22 25 0 0 0
SMALL
GASTEIGER

@<TRIPOS>ATOM
      1  C1         0.4800   68.4080   63.2780 C.2     0  HUB0        0.2450
      2  O1        -0.5500   68.9370   62.8540 O.2     0  HUB0       -0.2680
      3  N1         1.5710   68.2380   62.4300 N.am    0  HUB0       -0.3270
      4  C2         0.6380   67.9350   64.6420 C.2     0  HUB0        0.0750
      5  C3         1.8150   67.3570   65.0440 C.2     0  HUB0        0.0170
      6  C4         2.9460   67.1880   64.1640 C.2     0  HUB0        0.0010
      7  C5         2.7850   67.6380   62.8080 C.2     0  HUB0        0.0210
      8  C6         3.8610   67.5200   61.7450 C.3     0  HUB0        0.0670
      9  C7         5.1700   66.7270   62.2410 C.3     0  HUB0        0.0210
     10  C8         4.9760   65.1960   62.0930 C.2     0  HUB0       -0.0190
     11  C9         5.9840   68.8080   65.4450 C.3     0  HUB0        0.0280
     12  C10        5.6980   68.5260   63.9610 C.3     0  HUB0        0.0090
     13  C11        5.4760   67.0200   63.7290 C.3     0  HUB0        0.0350
     14  C12        4.3230   66.5070   64.6450 C.3     0  HUB0        0.1620
     15  N2         4.6170   66.8230   66.0930 N.4     0  HUB0       -0.0610
     16  C13        4.1510   64.9610   64.4910 C.3     0  HUB0        0.0770
     17  C14        4.5140   64.3960   63.1230 C.2     0  HUB0       -0.0840
     18  C90        4.8520   68.3470   66.3520 C.3     0  HUB0        0.2330
     19  H1         1.4850   68.5630   61.4880 H       0  HUB0        0.1690
     20  H13        5.4450   66.3190   66.3700 H       0  HUB0        0.2780
     21  H14        3.8360   66.5190   66.6530 H       0  HUB0        0.2780
     22  C15        4.3280   62.9040   63.0100 C.3     0  HUB0        0.0440
@<TRIPOS>BOND
     1    19     3    1
     2     8     9    1
     3     8     7    1
     4    10     9    1
     5    10    17    2
     6     9    13    1
     7     3     7    1
     8     3     1   am
     9     7     6    2
    10     2     1    2
    11    22    17    1
    12    17    16    1
    13     1     4    1
    14    13    12    1
    15    13    14    1
    16    12    11    1
    17     6    14    1
    18     6     5    1
    19    16    14    1
    20     4     5    2
    21    14    15    1
    22    11    18    1
    23    15    18    1
    24    15    20    1
    25    15    21    1
